REMARK SMILES CC1(F)C2CC3OC(C(CCCCN)NC(=O)C4CCCN4C(=O)c4cccc(C#N)c4)OC3C21
REMARK SMILES IDX 10 1 9 2 8 3 2 4 4 5 35 6 5 7 34 8 6 9 33 10 7 11 1 12 3 13
REMARK SMILES IDX 15 14 16 15 17 16 18 18 19 19 22 20 20 21 21 22 23 23 24 24
REMARK SMILES IDX 25 25 26 26 32 27 27 28 29 29 28 30 30 31 31 32 11 33 12 34
REMARK SMILES IDX 13 35 14 36
REMARK H PARENT 15 17 14 37 14 38
ROOT
ATOM      1  C   UNL     1      -1.141  -2.017  -0.586  1.00  0.00     0.030 C 
ENDROOT
BRANCH   1   2
ATOM      2  C   UNL     1      -1.163  -0.506  -0.879  1.00  0.00     0.138 C 
BRANCH   2   3
ATOM      3  C   UNL     1      -1.720   0.240   0.266  1.00  0.00     0.273 C 
ATOM      4  C   UNL     1      -4.099   2.771   2.702  1.00  0.00     0.117 C 
ATOM      5  C   UNL     1      -4.585   1.569   2.027  1.00  0.00     0.038 C 
ATOM      6  C   UNL     1      -3.081   1.898   2.056  1.00  0.00     0.065 C 
ATOM      7  C   UNL     1      -4.975   1.517   0.573  1.00  0.00     0.042 C 
ATOM      8  C   UNL     1      -2.710   2.196   0.626  1.00  0.00     0.157 C 
ATOM      9  C   UNL     1      -3.650   1.206  -0.089  1.00  0.00     0.151 C 
ATOM     10  O   UNL     1      -1.495   1.612   0.241  1.00  0.00    -0.344 OA
ATOM     11  O   UNL     1      -3.085   0.019   0.370  1.00  0.00    -0.344 OA
ATOM     12  C   UNL     1      -4.243   4.164   2.180  1.00  0.00     0.049 C 
ATOM     13  F   UNL     1      -4.204   2.720   4.101  1.00  0.00    -0.243 F 
ENDBRANCH   2   3
BRANCH   2  14
ATOM     14  N   UNL     1       0.289  -0.231  -1.055  1.00  0.00    -0.346 N 
ATOM     15  C   UNL     1       0.715   0.127  -2.353  1.00  0.00     0.243 C 
ATOM     16  O   UNL     1      -0.167   0.185  -3.272  1.00  0.00    -0.273 OA
ATOM     17  H   UNL     1       0.921  -0.310  -0.233  1.00  0.00     0.164 HD
BRANCH  15  18
ATOM     18  C   UNL     1       2.101   0.420  -2.646  1.00  0.00     0.174 C 
ATOM     19  C   UNL     1       2.770  -0.474  -3.634  1.00  0.00     0.037 C 
ATOM     20  N   UNL     1       3.002   0.357  -1.489  1.00  0.00    -0.327 N 
ATOM     21  C   UNL     1       3.345  -1.570  -2.763  1.00  0.00     0.024 C 
ATOM     22  C   UNL     1       3.717  -0.896  -1.460  1.00  0.00     0.121 C 
BRANCH  20  23
ATOM     23  C   UNL     1       3.063   1.461  -0.579  1.00  0.00     0.254 C 
ATOM     24  O   UNL     1       2.310   2.450  -0.873  1.00  0.00    -0.269 OA
BRANCH  23  25
ATOM     25  C   UNL     1       3.852   1.597   0.605  1.00  0.00     0.041 A 
ATOM     26  C   UNL     1       3.743   2.813   1.302  1.00  0.00     0.014 A 
ATOM     27  C   UNL     1       4.707   0.687   1.163  1.00  0.00     0.033 A 
ATOM     28  C   UNL     1       4.457   3.047   2.463  1.00  0.00     0.002 A 
ATOM     29  C   UNL     1       5.425   0.916   2.326  1.00  0.00     0.053 A 
ATOM     30  C   UNL     1       5.299   2.111   2.984  1.00  0.00     0.019 A 
ATOM     31  C   UNL     1       6.304  -0.086   2.853  1.00  0.00     0.099 C 
ATOM     32  N   UNL     1       7.010  -0.884   3.296  1.00  0.00    -0.192 NA
ENDBRANCH  23  25
ENDBRANCH  20  23
ENDBRANCH  15  18
ENDBRANCH   2  14
ENDBRANCH   1   2
BRANCH   1  33
ATOM     33  C   UNL     1      -2.448  -2.631  -0.313  1.00  0.00     0.004 C 
BRANCH  33  34
ATOM     34  C   UNL     1      -2.303  -4.101  -0.030  1.00  0.00     0.015 C 
BRANCH  34  35
ATOM     35  C   UNL     1      -1.725  -4.945  -1.094  1.00  0.00     0.077 C 
BRANCH  35  36
ATOM     36  N   UNL     1      -0.388  -4.649  -1.504  1.00  0.00    -0.330 NA
ATOM     37  H   UNL     1       0.318  -5.246  -1.036  1.00  0.00     0.118 HD
ATOM     38  H   UNL     1      -0.284  -4.792  -2.531  1.00  0.00     0.118 HD
ENDBRANCH  35  36
ENDBRANCH  34  35
ENDBRANCH  33  34
ENDBRANCH   1  33
TORSDOF 10
