MODEL 1
REMARK VINA RESULT:    -7.971      0.000      0.000
REMARK INTER + INTRA:         -14.660
REMARK INTER:                 -12.399
REMARK INTRA:                  -2.261
REMARK UNBOUND:                -2.261
REMARK SMILES CC1(C)C2CC3OC(C(CCCCN)NC(=O)C4CCCN4C(=O)c4cccc(C#N)c4)OC3C21
REMARK SMILES IDX 10 1 9 2 8 3 2 4 4 5 35 6 5 7 34 8 6 9 33 10 7 11 1 12 3 13
REMARK SMILES IDX 15 14 16 15 17 16 18 18 19 19 22 20 20 21 21 22 23 23 24 24
REMARK SMILES IDX 25 25 26 26 32 27 27 28 29 29 28 30 30 31 31 32 11 33 12 34
REMARK SMILES IDX 13 35 14 36
REMARK H PARENT 15 17 14 37 14 38
ROOT
ATOM      1  C   UNL     1       9.513  -7.007   5.021  1.00  0.00     0.030 C 
ENDROOT
BRANCH   1   2
ATOM      2  C   UNL     1       9.828  -5.609   4.694  1.00  0.00     0.138 C 
BRANCH   2   3
ATOM      3  C   UNL     1      11.054  -5.100   5.456  1.00  0.00     0.273 C 
ATOM      4  C   UNL     1      14.406  -5.060   8.303  1.00  0.00    -0.026 C 
ATOM      5  C   UNL     1      13.143  -4.766   9.021  1.00  0.00     0.004 C 
ATOM      6  C   UNL     1      13.283  -5.923   7.972  1.00  0.00     0.030 C 
ATOM      7  C   UNL     1      12.128  -3.806   8.452  1.00  0.00     0.039 C 
ATOM      8  C   UNL     1      12.096  -5.709   7.216  1.00  0.00     0.154 C 
ATOM      9  C   UNL     1      11.978  -4.193   7.067  1.00  0.00     0.151 C 
ATOM     10  O   UNL     1      11.890  -6.076   5.929  1.00  0.00    -0.344 OA
ATOM     11  O   UNL     1      10.706  -4.239   6.501  1.00  0.00    -0.344 OA
ATOM     12  C   UNL     1      14.996  -4.063   7.333  1.00  0.00     0.012 C 
ATOM     13  C   UNL     1      15.456  -5.592   9.270  1.00  0.00     0.012 C 
ENDBRANCH   2   3
BRANCH   2  14
ATOM     14  N   UNL     1       8.811  -4.642   5.061  1.00  0.00    -0.346 N 
ATOM     15  C   UNL     1       8.248  -3.813   4.038  1.00  0.00     0.243 C 
ATOM     16  O   UNL     1       8.727  -4.037   2.863  1.00  0.00    -0.273 OA
ATOM     17  H   UNL     1       8.468  -4.507   6.043  1.00  0.00     0.164 HD
BRANCH  15  18
ATOM     18  C   UNL     1       7.258  -2.801   4.184  1.00  0.00     0.174 C 
ATOM     19  C   UNL     1       7.120  -1.792   3.095  1.00  0.00     0.037 C 
ATOM     20  N   UNL     1       5.867  -3.134   4.413  1.00  0.00    -0.327 N 
ATOM     21  C   UNL     1       6.091  -0.872   3.804  1.00  0.00     0.024 C 
ATOM     22  C   UNL     1       5.251  -1.821   4.671  1.00  0.00     0.121 C 
BRANCH  20  23
ATOM     23  C   UNL     1       5.345  -4.420   4.410  1.00  0.00     0.254 C 
ATOM     24  O   UNL     1       5.121  -4.929   3.246  1.00  0.00    -0.269 OA
BRANCH  23  25
ATOM     25  C   UNL     1       5.008  -5.291   5.509  1.00  0.00     0.041 A 
ATOM     26  C   UNL     1       4.189  -4.772   6.521  1.00  0.00     0.014 A 
ATOM     27  C   UNL     1       5.369  -6.601   5.658  1.00  0.00     0.033 A 
ATOM     28  C   UNL     1       3.782  -5.551   7.598  1.00  0.00     0.002 A 
ATOM     29  C   UNL     1       4.961  -7.390   6.742  1.00  0.00     0.053 A 
ATOM     30  C   UNL     1       4.165  -6.860   7.715  1.00  0.00     0.019 A 
ATOM     31  C   UNL     1       5.374  -8.756   6.842  1.00  0.00     0.099 C 
ATOM     32  N   UNL     1       5.688  -9.855   6.911  1.00  0.00    -0.192 NA
ENDBRANCH  23  25
ENDBRANCH  20  23
ENDBRANCH  15  18
ENDBRANCH   2  14
ENDBRANCH   1   2
BRANCH   1  33
ATOM     33  C   UNL     1       8.896  -7.291   6.338  1.00  0.00     0.004 C 
BRANCH  33  34
ATOM     34  C   UNL     1       9.094  -8.732   6.785  1.00  0.00     0.015 C 
BRANCH  34  35
ATOM     35  C   UNL     1      10.399  -8.898   7.532  1.00  0.00     0.077 C 
BRANCH  35  36
ATOM     36  N   UNL     1      10.294  -8.412   8.893  1.00  0.00    -0.330 NA
ATOM     37  H   UNL     1       9.898  -9.146   9.495  1.00  0.00     0.118 HD
ATOM     38  H   UNL     1       9.809  -7.491   8.929  1.00  0.00     0.118 HD
ENDBRANCH  35  36
ENDBRANCH  34  35
ENDBRANCH  33  34
ENDBRANCH   1  33
TORSDOF 10
ENDMDL
MODEL 2
REMARK VINA RESULT:    -7.808      1.524      4.042
REMARK INTER + INTRA:         -14.406
REMARK INTER:                 -12.043
REMARK INTRA:                  -2.363
REMARK UNBOUND:                -2.261
REMARK SMILES CC1(C)C2CC3OC(C(CCCCN)NC(=O)C4CCCN4C(=O)c4cccc(C#N)c4)OC3C21
REMARK SMILES IDX 10 1 9 2 8 3 2 4 4 5 35 6 5 7 34 8 6 9 33 10 7 11 1 12 3 13
REMARK SMILES IDX 15 14 16 15 17 16 18 18 19 19 22 20 20 21 21 22 23 23 24 24
REMARK SMILES IDX 25 25 26 26 32 27 27 28 29 29 28 30 30 31 31 32 11 33 12 34
REMARK SMILES IDX 13 35 14 36
REMARK H PARENT 15 17 14 37 14 38
ROOT
ATOM      1  C   UNL     1      11.901  -4.212   5.629  1.00  0.00     0.030 C 
ENDROOT
BRANCH   1   2
ATOM      2  C   UNL     1      10.517  -4.650   5.857  1.00  0.00     0.138 C 
BRANCH   2   3
ATOM      3  C   UNL     1      10.356  -6.164   5.697  1.00  0.00     0.273 C 
ATOM      4  C   UNL     1       8.640 -10.189   6.140  1.00  0.00    -0.026 C 
ATOM      5  C   UNL     1       9.399  -9.836   7.364  1.00  0.00     0.004 C 
ATOM      6  C   UNL     1       8.401  -8.852   6.660  1.00  0.00     0.030 C 
ATOM      7  C   UNL     1      10.757  -9.187   7.280  1.00  0.00     0.039 C 
ATOM      8  C   UNL     1       9.189  -7.667   6.664  1.00  0.00     0.154 C 
ATOM      9  C   UNL     1      10.606  -8.120   6.316  1.00  0.00     0.151 C 
ATOM     10  O   UNL     1       9.071  -6.625   5.806  1.00  0.00    -0.344 OA
ATOM     11  O   UNL     1      11.183  -6.878   6.570  1.00  0.00    -0.344 OA
ATOM     12  C   UNL     1       9.356 -10.453   4.835  1.00  0.00     0.012 C 
ATOM     13  C   UNL     1       7.611 -11.270   6.445  1.00  0.00     0.012 C 
ENDBRANCH   2   3
BRANCH   2  14
ATOM     14  N   UNL     1       9.539  -4.133   4.919  1.00  0.00    -0.346 N 
ATOM     15  C   UNL     1       8.621  -3.128   5.364  1.00  0.00     0.243 C 
ATOM     16  O   UNL     1       8.782  -2.784   6.596  1.00  0.00    -0.273 OA
ATOM     17  H   UNL     1       9.459  -4.463   3.926  1.00  0.00     0.164 HD
BRANCH  15  18
ATOM     18  C   UNL     1       7.584  -2.503   4.616  1.00  0.00     0.174 C 
ATOM     19  C   UNL     1       7.928  -1.936   3.280  1.00  0.00     0.037 C 
ATOM     20  N   UNL     1       6.356  -3.203   4.297  1.00  0.00    -0.327 N 
ATOM     21  C   UNL     1       6.564  -1.253   2.996  1.00  0.00     0.024 C 
ATOM     22  C   UNL     1       5.526  -2.152   3.684  1.00  0.00     0.121 C 
BRANCH  20  23
ATOM     23  C   UNL     1       6.104  -4.539   4.580  1.00  0.00     0.254 C 
ATOM     24  O   UNL     1       6.594  -5.389   3.742  1.00  0.00    -0.269 OA
BRANCH  23  25
ATOM     25  C   UNL     1       5.376  -5.138   5.671  1.00  0.00     0.041 A 
ATOM     26  C   UNL     1       4.456  -4.334   6.356  1.00  0.00     0.014 A 
ATOM     27  C   UNL     1       5.455  -6.435   6.094  1.00  0.00     0.033 A 
ATOM     28  C   UNL     1       3.683  -4.838   7.395  1.00  0.00     0.002 A 
ATOM     29  C   UNL     1       4.677  -6.948   7.141  1.00  0.00     0.053 A 
ATOM     30  C   UNL     1       3.788  -6.143   7.793  1.00  0.00     0.019 A 
ATOM     31  C   UNL     1       4.805  -8.316   7.539  1.00  0.00     0.099 C 
ATOM     32  N   UNL     1       4.894  -9.416   7.844  1.00  0.00    -0.192 NA
ENDBRANCH  23  25
ENDBRANCH  20  23
ENDBRANCH  15  18
ENDBRANCH   2  14
ENDBRANCH   1   2
BRANCH   1  33
ATOM     33  C   UNL     1      12.510  -3.290   6.616  1.00  0.00     0.004 C 
BRANCH  33  34
ATOM     34  C   UNL     1      12.292  -3.735   8.054  1.00  0.00     0.015 C 
BRANCH  34  35
ATOM     35  C   UNL     1      13.608  -4.028   8.741  1.00  0.00     0.077 C 
BRANCH  35  36
ATOM     36  N   UNL     1      13.461  -5.061   9.746  1.00  0.00    -0.330 NA
ATOM     37  H   UNL     1      13.552  -5.987   9.309  1.00  0.00     0.118 HD
ATOM     38  H   UNL     1      12.600  -4.915  10.314  1.00  0.00     0.118 HD
ENDBRANCH  35  36
ENDBRANCH  34  35
ENDBRANCH  33  34
ENDBRANCH   1  33
TORSDOF 10
ENDMDL
MODEL 3
REMARK VINA RESULT:    -7.673      2.367      6.824
REMARK INTER + INTRA:         -14.197
REMARK INTER:                 -10.864
REMARK INTRA:                  -3.333
REMARK UNBOUND:                -2.261
REMARK SMILES CC1(C)C2CC3OC(C(CCCCN)NC(=O)C4CCCN4C(=O)c4cccc(C#N)c4)OC3C21
REMARK SMILES IDX 10 1 9 2 8 3 2 4 4 5 35 6 5 7 34 8 6 9 33 10 7 11 1 12 3 13
REMARK SMILES IDX 15 14 16 15 17 16 18 18 19 19 22 20 20 21 21 22 23 23 24 24
REMARK SMILES IDX 25 25 26 26 32 27 27 28 29 29 28 30 30 31 31 32 11 33 12 34
REMARK SMILES IDX 13 35 14 36
REMARK H PARENT 15 17 14 37 14 38
ROOT
ATOM      1  C   UNL     1       6.969  -9.740   6.706  1.00  0.00     0.030 C 
ENDROOT
BRANCH   1   2
ATOM      2  C   UNL     1       7.550  -8.392   6.772  1.00  0.00     0.138 C 
BRANCH   2   3
ATOM      3  C   UNL     1       6.574  -7.317   6.285  1.00  0.00     0.273 C 
ATOM      4  C   UNL     1       4.741  -3.353   5.766  1.00  0.00    -0.026 C 
ATOM      5  C   UNL     1       4.339  -3.917   7.077  1.00  0.00     0.004 C 
ATOM      6  C   UNL     1       5.815  -3.951   6.545  1.00  0.00     0.030 C 
ATOM      7  C   UNL     1       3.908  -5.357   7.208  1.00  0.00     0.039 C 
ATOM      8  C   UNL     1       6.148  -5.302   6.844  1.00  0.00     0.154 C 
ATOM      9  C   UNL     1       4.904  -6.116   6.485  1.00  0.00     0.151 C 
ATOM     10  O   UNL     1       7.090  -6.050   6.222  1.00  0.00    -0.344 OA
ATOM     11  O   UNL     1       5.391  -7.302   7.030  1.00  0.00    -0.344 OA
ATOM     12  C   UNL     1       4.225  -3.948   4.476  1.00  0.00     0.012 C 
ATOM     13  C   UNL     1       4.610  -1.835   5.777  1.00  0.00     0.012 C 
ENDBRANCH   2   3
BRANCH   2  14
ATOM     14  N   UNL     1       8.704  -8.170   5.922  1.00  0.00    -0.346 N 
ATOM     15  C   UNL     1       9.947  -7.799   6.530  1.00  0.00     0.243 C 
ATOM     16  O   UNL     1       9.891  -7.707   7.814  1.00  0.00    -0.273 OA
ATOM     17  H   UNL     1       8.679  -8.258   4.876  1.00  0.00     0.164 HD
BRANCH  15  18
ATOM     18  C   UNL     1      11.185  -7.525   5.883  1.00  0.00     0.174 C 
ATOM     19  C   UNL     1      11.349  -7.963   4.467  1.00  0.00     0.037 C 
ATOM     20  N   UNL     1      11.713  -6.177   5.805  1.00  0.00    -0.327 N 
ATOM     21  C   UNL     1      12.851  -7.605   4.320  1.00  0.00     0.024 C 
ATOM     22  C   UNL     1      13.051  -6.381   5.225  1.00  0.00     0.121 C 
BRANCH  20  23
ATOM     23  C   UNL     1      11.051  -5.036   6.238  1.00  0.00     0.254 C 
ATOM     24  O   UNL     1      11.352  -4.635   7.427  1.00  0.00    -0.269 OA
BRANCH  23  25
ATOM     25  C   UNL     1      10.071  -4.217   5.569  1.00  0.00     0.041 A 
ATOM     26  C   UNL     1       9.888  -2.910   6.038  1.00  0.00     0.014 A 
ATOM     27  C   UNL     1       9.316  -4.564   4.484  1.00  0.00     0.033 A 
ATOM     28  C   UNL     1       8.994  -2.038   5.430  1.00  0.00     0.002 A 
ATOM     29  C   UNL     1       8.412  -3.688   3.868  1.00  0.00     0.053 A 
ATOM     30  C   UNL     1       8.253  -2.420   4.345  1.00  0.00     0.019 A 
ATOM     31  C   UNL     1       7.649  -4.110   2.734  1.00  0.00     0.099 C 
ATOM     32  N   UNL     1       7.053  -4.443   1.815  1.00  0.00    -0.192 NA
ENDBRANCH  23  25
ENDBRANCH  20  23
ENDBRANCH  15  18
ENDBRANCH   2  14
ENDBRANCH   1   2
BRANCH   1  33
ATOM     33  C   UNL     1       7.812 -10.834   6.169  1.00  0.00     0.004 C 
BRANCH  33  34
ATOM     34  C   UNL     1       8.435 -11.691   7.261  1.00  0.00     0.015 C 
BRANCH  34  35
ATOM     35  C   UNL     1       9.928 -11.463   7.348  1.00  0.00     0.077 C 
BRANCH  35  36
ATOM     36  N   UNL     1      10.276 -10.685   8.520  1.00  0.00    -0.330 NA
ATOM     37  H   UNL     1      11.269 -10.421   8.479  1.00  0.00     0.118 HD
ATOM     38  H   UNL     1       9.975 -11.165   9.394  1.00  0.00     0.118 HD
ENDBRANCH  35  36
ENDBRANCH  34  35
ENDBRANCH  33  34
ENDBRANCH   1  33
TORSDOF 10
ENDMDL
MODEL 4
REMARK VINA RESULT:    -7.586      2.651      7.840
REMARK INTER + INTRA:         -14.060
REMARK INTER:                 -12.202
REMARK INTRA:                  -1.858
REMARK UNBOUND:                -2.261
REMARK SMILES CC1(C)C2CC3OC(C(CCCCN)NC(=O)C4CCCN4C(=O)c4cccc(C#N)c4)OC3C21
REMARK SMILES IDX 10 1 9 2 8 3 2 4 4 5 35 6 5 7 34 8 6 9 33 10 7 11 1 12 3 13
REMARK SMILES IDX 15 14 16 15 17 16 18 18 19 19 22 20 20 21 21 22 23 23 24 24
REMARK SMILES IDX 25 25 26 26 32 27 27 28 29 29 28 30 30 31 31 32 11 33 12 34
REMARK SMILES IDX 13 35 14 36
REMARK H PARENT 15 17 14 37 14 38
ROOT
ATOM      1  C   UNL     1       4.927 -10.239   6.920  1.00  0.00     0.030 C 
ENDROOT
BRANCH   1   2
ATOM      2  C   UNL     1       5.913  -9.159   7.069  1.00  0.00     0.138 C 
BRANCH   2   3
ATOM      3  C   UNL     1       5.399  -7.827   6.515  1.00  0.00     0.273 C 
ATOM      4  C   UNL     1       5.244  -3.520   5.639  1.00  0.00    -0.026 C 
ATOM      5  C   UNL     1       4.782  -3.761   7.027  1.00  0.00     0.004 C 
ATOM      6  C   UNL     1       6.063  -4.432   6.422  1.00  0.00     0.030 C 
ATOM      7  C   UNL     1       3.831  -4.886   7.349  1.00  0.00     0.039 C 
ATOM      8  C   UNL     1       5.862  -5.772   6.857  1.00  0.00     0.154 C 
ATOM      9  C   UNL     1       4.370  -6.042   6.666  1.00  0.00     0.151 C 
ATOM     10  O   UNL     1       6.366  -6.887   6.276  1.00  0.00    -0.344 OA
ATOM     11  O   UNL     1       4.398  -7.273   7.317  1.00  0.00    -0.344 OA
ATOM     12  C   UNL     1       4.411  -3.963   4.458  1.00  0.00     0.012 C 
ATOM     13  C   UNL     1       5.725  -2.084   5.480  1.00  0.00     0.012 C 
ENDBRANCH   2   3
BRANCH   2  14
ATOM     14  N   UNL     1       7.152  -9.342   6.337  1.00  0.00    -0.346 N 
ATOM     15  C   UNL     1       7.967 -10.481   6.637  1.00  0.00     0.243 C 
ATOM     16  O   UNL     1       7.482 -11.241   7.557  1.00  0.00    -0.273 OA
ATOM     17  H   UNL     1       7.492  -8.678   5.599  1.00  0.00     0.164 HD
BRANCH  15  18
ATOM     18  C   UNL     1       9.215 -10.837   6.051  1.00  0.00     0.174 C 
ATOM     19  C   UNL     1       9.343 -10.751   4.568  1.00  0.00     0.037 C 
ATOM     20  N   UNL     1      10.450 -10.198   6.459  1.00  0.00    -0.327 N 
ATOM     21  C   UNL     1      10.752 -11.388   4.451  1.00  0.00     0.024 C 
ATOM     22  C   UNL     1      11.476 -10.974   5.742  1.00  0.00     0.121 C 
BRANCH  20  23
ATOM     23  C   UNL     1      10.542  -9.139   7.353  1.00  0.00     0.254 C 
ATOM     24  O   UNL     1      10.493  -9.457   8.602  1.00  0.00    -0.269 OA
BRANCH  23  25
ATOM     25  C   UNL     1      10.683  -7.725   7.109  1.00  0.00     0.041 A 
ATOM     26  C   UNL     1      11.649  -7.032   7.851  1.00  0.00     0.014 A 
ATOM     27  C   UNL     1       9.999  -6.978   6.191  1.00  0.00     0.033 A 
ATOM     28  C   UNL     1      11.881  -5.676   7.655  1.00  0.00     0.002 A 
ATOM     29  C   UNL     1      10.230  -5.611   5.990  1.00  0.00     0.053 A 
ATOM     30  C   UNL     1      11.176  -4.960   6.727  1.00  0.00     0.019 A 
ATOM     31  C   UNL     1       9.480  -4.883   5.014  1.00  0.00     0.099 C 
ATOM     32  N   UNL     1       8.892  -4.306   4.218  1.00  0.00    -0.192 NA
ENDBRANCH  23  25
ENDBRANCH  20  23
ENDBRANCH  15  18
ENDBRANCH   2  14
ENDBRANCH   1   2
BRANCH   1  33
ATOM     33  C   UNL     1       4.184 -10.673   8.126  1.00  0.00     0.004 C 
BRANCH  33  34
ATOM     34  C   UNL     1       3.657 -12.096   8.016  1.00  0.00     0.015 C 
BRANCH  34  35
ATOM     35  C   UNL     1       4.657 -13.092   8.560  1.00  0.00     0.077 C 
BRANCH  35  36
ATOM     36  N   UNL     1       5.483 -13.642   7.504  1.00  0.00    -0.330 NA
ATOM     37  H   UNL     1       4.886 -14.044   6.770  1.00  0.00     0.118 HD
ATOM     38  H   UNL     1       6.213 -14.277   7.888  1.00  0.00     0.118 HD
ENDBRANCH  35  36
ENDBRANCH  34  35
ENDBRANCH  33  34
ENDBRANCH   1  33
TORSDOF 10
ENDMDL
MODEL 5
REMARK VINA RESULT:    -7.467      2.526      7.143
REMARK INTER + INTRA:         -13.876
REMARK INTER:                 -11.076
REMARK INTRA:                  -2.800
REMARK UNBOUND:                -2.261
REMARK SMILES CC1(C)C2CC3OC(C(CCCCN)NC(=O)C4CCCN4C(=O)c4cccc(C#N)c4)OC3C21
REMARK SMILES IDX 10 1 9 2 8 3 2 4 4 5 35 6 5 7 34 8 6 9 33 10 7 11 1 12 3 13
REMARK SMILES IDX 15 14 16 15 17 16 18 18 19 19 22 20 20 21 21 22 23 23 24 24
REMARK SMILES IDX 25 25 26 26 32 27 27 28 29 29 28 30 30 31 31 32 11 33 12 34
REMARK SMILES IDX 13 35 14 36
REMARK H PARENT 15 17 14 37 14 38
ROOT
ATOM      1  C   UNL     1       5.612  -9.341   6.797  1.00  0.00     0.030 C 
ENDROOT
BRANCH   1   2
ATOM      2  C   UNL     1       6.523  -8.188   6.792  1.00  0.00     0.138 C 
BRANCH   2   3
ATOM      3  C   UNL     1       5.857  -6.928   6.231  1.00  0.00     0.273 C 
ATOM      4  C   UNL     1       5.064  -2.661   5.520  1.00  0.00    -0.026 C 
ATOM      5  C   UNL     1       4.487  -3.062   6.826  1.00  0.00     0.004 C 
ATOM      6  C   UNL     1       5.929  -3.471   6.364  1.00  0.00     0.030 C 
ATOM      7  C   UNL     1       3.715  -4.348   6.977  1.00  0.00     0.039 C 
ATOM      8  C   UNL     1       5.912  -4.851   6.715  1.00  0.00     0.154 C 
ATOM      9  C   UNL     1       4.523  -5.352   6.322  1.00  0.00     0.151 C 
ATOM     10  O   UNL     1       6.667  -5.827   6.158  1.00  0.00    -0.344 OA
ATOM     11  O   UNL     1       4.685  -6.600   6.920  1.00  0.00    -0.344 OA
ATOM     12  C   UNL     1       4.468  -3.162   4.225  1.00  0.00     0.012 C 
ATOM     13  C   UNL     1       5.305  -1.158   5.484  1.00  0.00     0.012 C 
ENDBRANCH   2   3
BRANCH   2  14
ATOM     14  N   UNL     1       7.692  -8.323   5.944  1.00  0.00    -0.346 N 
ATOM     15  C   UNL     1       8.991  -8.227   6.541  1.00  0.00     0.243 C 
ATOM     16  O   UNL     1       8.966  -8.027   7.814  1.00  0.00    -0.273 OA
ATOM     17  H   UNL     1       7.641  -8.481   4.908  1.00  0.00     0.164 HD
BRANCH  15  18
ATOM     18  C   UNL     1      10.255  -8.316   5.894  1.00  0.00     0.174 C 
ATOM     19  C   UNL     1      10.290  -8.819   4.490  1.00  0.00     0.037 C 
ATOM     20  N   UNL     1      11.130  -7.167   5.784  1.00  0.00    -0.327 N 
ATOM     21  C   UNL     1      11.833  -8.887   4.340  1.00  0.00     0.024 C 
ATOM     22  C   UNL     1      12.362  -7.742   5.216  1.00  0.00     0.121 C 
BRANCH  20  23
ATOM     23  C   UNL     1      10.806  -5.878   6.186  1.00  0.00     0.254 C 
ATOM     24  O   UNL     1      11.242  -5.530   7.349  1.00  0.00    -0.269 OA
BRANCH  23  25
ATOM     25  C   UNL     1      10.052  -4.853   5.507  1.00  0.00     0.041 A 
ATOM     26  C   UNL     1      10.153  -3.543   5.995  1.00  0.00     0.014 A 
ATOM     27  C   UNL     1       9.269  -5.010   4.398  1.00  0.00     0.033 A 
ATOM     28  C   UNL     1       9.493  -2.486   5.380  1.00  0.00     0.002 A 
ATOM     29  C   UNL     1       8.601  -3.946   3.776  1.00  0.00     0.053 A 
ATOM     30  C   UNL     1       8.715  -2.680   4.271  1.00  0.00     0.019 A 
ATOM     31  C   UNL     1       7.795  -4.174   2.616  1.00  0.00     0.099 C 
ATOM     32  N   UNL     1       7.165  -4.355   1.677  1.00  0.00    -0.192 NA
ENDBRANCH  23  25
ENDBRANCH  20  23
ENDBRANCH  15  18
ENDBRANCH   2  14
ENDBRANCH   1   2
BRANCH   1  33
ATOM     33  C   UNL     1       6.210 -10.698   6.830  1.00  0.00     0.004 C 
BRANCH  33  34
ATOM     34  C   UNL     1       5.541 -11.614   7.845  1.00  0.00     0.015 C 
BRANCH  34  35
ATOM     35  C   UNL     1       4.035 -11.490   7.782  1.00  0.00     0.077 C 
BRANCH  35  36
ATOM     36  N   UNL     1       3.480 -11.129   9.071  1.00  0.00    -0.330 NA
ATOM     37  H   UNL     1       4.204 -10.681   9.648  1.00  0.00     0.118 HD
ATOM     38  H   UNL     1       2.991 -11.937   9.511  1.00  0.00     0.118 HD
ENDBRANCH  35  36
ENDBRANCH  34  35
ENDBRANCH  33  34
ENDBRANCH   1  33
TORSDOF 10
ENDMDL
MODEL 6
REMARK VINA RESULT:    -7.431      2.391      7.295
REMARK INTER + INTRA:         -13.819
REMARK INTER:                 -11.476
REMARK INTRA:                  -2.343
REMARK UNBOUND:                -2.261
REMARK SMILES CC1(C)C2CC3OC(C(CCCCN)NC(=O)C4CCCN4C(=O)c4cccc(C#N)c4)OC3C21
REMARK SMILES IDX 10 1 9 2 8 3 2 4 4 5 35 6 5 7 34 8 6 9 33 10 7 11 1 12 3 13
REMARK SMILES IDX 15 14 16 15 17 16 18 18 19 19 22 20 20 21 21 22 23 23 24 24
REMARK SMILES IDX 25 25 26 26 32 27 27 28 29 29 28 30 30 31 31 32 11 33 12 34
REMARK SMILES IDX 13 35 14 36
REMARK H PARENT 15 17 14 37 14 38
ROOT
ATOM      1  C   UNL     1       4.951  -8.783   7.432  1.00  0.00     0.030 C 
ENDROOT
BRANCH   1   2
ATOM      2  C   UNL     1       6.132  -7.983   7.079  1.00  0.00     0.138 C 
BRANCH   2   3
ATOM      3  C   UNL     1       5.763  -6.730   6.279  1.00  0.00     0.273 C 
ATOM      4  C   UNL     1       5.746  -2.523   4.996  1.00  0.00    -0.026 C 
ATOM      5  C   UNL     1       4.909  -2.675   6.211  1.00  0.00     0.004 C 
ATOM      6  C   UNL     1       6.330  -3.324   6.062  1.00  0.00     0.030 C 
ATOM      7  C   UNL     1       3.939  -3.820   6.352  1.00  0.00     0.039 C 
ATOM      8  C   UNL     1       6.049  -4.633   6.545  1.00  0.00     0.154 C 
ATOM      9  C   UNL     1       4.684  -4.997   5.963  1.00  0.00     0.151 C 
ATOM     10  O   UNL     1       6.731  -5.761   6.239  1.00  0.00    -0.344 OA
ATOM     11  O   UNL     1       4.558  -6.167   6.707  1.00  0.00    -0.344 OA
ATOM     12  C   UNL     1       5.303  -3.105   3.674  1.00  0.00     0.012 C 
ATOM     13  C   UNL     1       6.212  -1.081   4.847  1.00  0.00     0.012 C 
ENDBRANCH   2   3
BRANCH   2  14
ATOM     14  N   UNL     1       7.088  -8.637   6.206  1.00  0.00    -0.346 N 
ATOM     15  C   UNL     1       8.475  -8.617   6.563  1.00  0.00     0.243 C 
ATOM     16  O   UNL     1       8.719  -7.997   7.666  1.00  0.00    -0.273 OA
ATOM     17  H   UNL     1       6.820  -9.122   5.314  1.00  0.00     0.164 HD
BRANCH  15  18
ATOM     18  C   UNL     1       9.567  -9.182   5.846  1.00  0.00     0.174 C 
ATOM     19  C   UNL     1       9.326 -10.435   5.074  1.00  0.00     0.037 C 
ATOM     20  N   UNL     1      10.310  -8.409   4.871  1.00  0.00    -0.327 N 
ATOM     21  C   UNL     1      10.798 -10.702   4.663  1.00  0.00     0.024 C 
ATOM     22  C   UNL     1      11.423  -9.306   4.517  1.00  0.00     0.121 C 
BRANCH  20  23
ATOM     23  C   UNL     1       9.989  -7.121   4.464  1.00  0.00     0.254 C 
ATOM     24  O   UNL     1       9.344  -7.032   3.350  1.00  0.00    -0.269 OA
BRANCH  23  25
ATOM     25  C   UNL     1      10.262  -5.851   5.090  1.00  0.00     0.041 A 
ATOM     26  C   UNL     1       9.607  -4.722   4.581  1.00  0.00     0.014 A 
ATOM     27  C   UNL     1      11.071  -5.626   6.169  1.00  0.00     0.033 A 
ATOM     28  C   UNL     1       9.780  -3.465   5.147  1.00  0.00     0.002 A 
ATOM     29  C   UNL     1      11.248  -4.360   6.742  1.00  0.00     0.053 A 
ATOM     30  C   UNL     1      10.599  -3.277   6.227  1.00  0.00     0.019 A 
ATOM     31  C   UNL     1      12.110  -4.188   7.872  1.00  0.00     0.099 C 
ATOM     32  N   UNL     1      12.784  -4.055   8.788  1.00  0.00    -0.192 NA
ENDBRANCH  23  25
ENDBRANCH  20  23
ENDBRANCH  15  18
ENDBRANCH   2  14
ENDBRANCH   1   2
BRANCH   1  33
ATOM     33  C   UNL     1       4.988 -10.237   7.149  1.00  0.00     0.004 C 
BRANCH  33  34
ATOM     34  C   UNL     1       4.249 -11.061   8.193  1.00  0.00     0.015 C 
BRANCH  34  35
ATOM     35  C   UNL     1       5.046 -12.286   8.586  1.00  0.00     0.077 C 
BRANCH  35  36
ATOM     36  N   UNL     1       4.943 -12.550  10.007  1.00  0.00    -0.330 NA
ATOM     37  H   UNL     1       5.419 -13.433  10.231  1.00  0.00     0.118 HD
ATOM     38  H   UNL     1       3.957 -12.475  10.334  1.00  0.00     0.118 HD
ENDBRANCH  35  36
ENDBRANCH  34  35
ENDBRANCH  33  34
ENDBRANCH   1  33
TORSDOF 10
ENDMDL
MODEL 7
REMARK VINA RESULT:    -7.367      2.844      6.779
REMARK INTER + INTRA:         -13.720
REMARK INTER:                 -10.083
REMARK INTRA:                  -3.637
REMARK UNBOUND:                -2.261
REMARK SMILES CC1(C)C2CC3OC(C(CCCCN)NC(=O)C4CCCN4C(=O)c4cccc(C#N)c4)OC3C21
REMARK SMILES IDX 10 1 9 2 8 3 2 4 4 5 35 6 5 7 34 8 6 9 33 10 7 11 1 12 3 13
REMARK SMILES IDX 15 14 16 15 17 16 18 18 19 19 22 20 20 21 21 22 23 23 24 24
REMARK SMILES IDX 25 25 26 26 32 27 27 28 29 29 28 30 30 31 31 32 11 33 12 34
REMARK SMILES IDX 13 35 14 36
REMARK H PARENT 15 17 14 37 14 38
ROOT
ATOM      1  C   UNL     1       9.131  -5.965   2.922  1.00  0.00     0.030 C 
ENDROOT
BRANCH   1   2
ATOM      2  C   UNL     1       7.953  -5.093   3.035  1.00  0.00     0.138 C 
BRANCH   2   3
ATOM      3  C   UNL     1       8.308  -3.615   2.849  1.00  0.00     0.273 C 
ATOM      4  C   UNL     1       7.753   0.710   2.276  1.00  0.00    -0.026 C 
ATOM      5  C   UNL     1       7.578   0.012   0.980  1.00  0.00     0.004 C 
ATOM      6  C   UNL     1       6.927  -0.487   2.318  1.00  0.00     0.030 C 
ATOM      7  C   UNL     1       8.527  -1.076   0.545  1.00  0.00     0.039 C 
ATOM      8  C   UNL     1       7.239  -1.874   2.235  1.00  0.00     0.154 C 
ATOM      9  C   UNL     1       8.669  -1.937   1.698  1.00  0.00     0.151 C 
ATOM     10  O   UNL     1       7.354  -2.731   3.276  1.00  0.00    -0.344 OA
ATOM     11  O   UNL     1       8.659  -3.319   1.528  1.00  0.00    -0.344 OA
ATOM     12  C   UNL     1       9.113   0.799   2.929  1.00  0.00     0.012 C 
ATOM     13  C   UNL     1       7.052   2.062   2.252  1.00  0.00     0.012 C 
ENDBRANCH   2   3
BRANCH   2  14
ATOM     14  N   UNL     1       7.302  -5.094   4.331  1.00  0.00    -0.346 N 
ATOM     15  C   UNL     1       5.882  -5.278   4.388  1.00  0.00     0.243 C 
ATOM     16  O   UNL     1       5.330  -5.432   3.235  1.00  0.00    -0.273 OA
ATOM     17  H   UNL     1       7.814  -4.958   5.237  1.00  0.00     0.164 HD
BRANCH  15  18
ATOM     18  C   UNL     1       5.053  -5.298   5.545  1.00  0.00     0.174 C 
ATOM     19  C   UNL     1       5.186  -6.450   6.483  1.00  0.00     0.037 C 
ATOM     20  N   UNL     1       5.041  -4.194   6.484  1.00  0.00    -0.327 N 
ATOM     21  C   UNL     1       3.999  -6.089   7.413  1.00  0.00     0.024 C 
ATOM     22  C   UNL     1       3.946  -4.554   7.402  1.00  0.00     0.121 C 
BRANCH  20  23
ATOM     23  C   UNL     1       5.876  -3.087   6.422  1.00  0.00     0.254 C 
ATOM     24  O   UNL     1       7.091  -3.282   6.811  1.00  0.00    -0.269 OA
BRANCH  23  25
ATOM     25  C   UNL     1       5.604  -1.738   5.990  1.00  0.00     0.041 A 
ATOM     26  C   UNL     1       4.369  -1.490   5.378  1.00  0.00     0.014 A 
ATOM     27  C   UNL     1       6.413  -0.648   6.149  1.00  0.00     0.033 A 
ATOM     28  C   UNL     1       4.006  -0.214   4.965  1.00  0.00     0.002 A 
ATOM     29  C   UNL     1       6.051   0.641   5.734  1.00  0.00     0.053 A 
ATOM     30  C   UNL     1       4.842   0.855   5.139  1.00  0.00     0.019 A 
ATOM     31  C   UNL     1       6.941   1.743   5.927  1.00  0.00     0.099 C 
ATOM     32  N   UNL     1       7.647   2.628   6.101  1.00  0.00    -0.192 NA
ENDBRANCH  23  25
ENDBRANCH  20  23
ENDBRANCH  15  18
ENDBRANCH   2  14
ENDBRANCH   1   2
BRANCH   1  33
ATOM     33  C   UNL     1       9.613  -6.644   4.148  1.00  0.00     0.004 C 
BRANCH  33  34
ATOM     34  C   UNL     1      10.904  -6.045   4.687  1.00  0.00     0.015 C 
BRANCH  34  35
ATOM     35  C   UNL     1      10.716  -5.517   6.091  1.00  0.00     0.077 C 
BRANCH  35  36
ATOM     36  N   UNL     1       9.776  -4.415   6.120  1.00  0.00    -0.330 NA
ATOM     37  H   UNL     1       9.831  -3.887   5.240  1.00  0.00     0.118 HD
ATOM     38  H   UNL     1       9.882  -3.851   6.990  1.00  0.00     0.118 HD
ENDBRANCH  35  36
ENDBRANCH  34  35
ENDBRANCH  33  34
ENDBRANCH   1  33
TORSDOF 10
ENDMDL
MODEL 8
REMARK VINA RESULT:    -7.343      2.203      4.050
REMARK INTER + INTRA:         -13.682
REMARK INTER:                 -11.033
REMARK INTRA:                  -2.649
REMARK UNBOUND:                -2.261
REMARK SMILES CC1(C)C2CC3OC(C(CCCCN)NC(=O)C4CCCN4C(=O)c4cccc(C#N)c4)OC3C21
REMARK SMILES IDX 10 1 9 2 8 3 2 4 4 5 35 6 5 7 34 8 6 9 33 10 7 11 1 12 3 13
REMARK SMILES IDX 15 14 16 15 17 16 18 18 19 19 22 20 20 21 21 22 23 23 24 24
REMARK SMILES IDX 25 25 26 26 32 27 27 28 29 29 28 30 30 31 31 32 11 33 12 34
REMARK SMILES IDX 13 35 14 36
REMARK H PARENT 15 17 14 37 14 38
ROOT
ATOM      1  C   UNL     1      11.907  -4.369   5.408  1.00  0.00     0.030 C 
ENDROOT
BRANCH   1   2
ATOM      2  C   UNL     1      10.490  -4.492   5.778  1.00  0.00     0.138 C 
BRANCH   2   3
ATOM      3  C   UNL     1      10.019  -5.949   5.786  1.00  0.00     0.273 C 
ATOM      4  C   UNL     1       9.769 -10.187   6.936  1.00  0.00    -0.026 C 
ATOM      5  C   UNL     1      10.936  -9.983   6.044  1.00  0.00     0.004 C 
ATOM      6  C   UNL     1      10.599  -9.033   7.245  1.00  0.00     0.030 C 
ATOM      7  C   UNL     1      10.829  -9.139   4.799  1.00  0.00     0.039 C 
ATOM      8  C   UNL     1      10.767  -7.771   6.609  1.00  0.00     0.154 C 
ATOM      9  C   UNL     1      10.152  -7.932   5.219  1.00  0.00     0.151 C 
ATOM     10  O   UNL     1      10.183  -6.606   6.977  1.00  0.00    -0.344 OA
ATOM     11  O   UNL     1      10.601  -6.697   4.758  1.00  0.00    -0.344 OA
ATOM     12  C   UNL     1       8.359 -10.072   6.404  1.00  0.00     0.012 C 
ATOM     13  C   UNL     1       9.953 -11.446   7.774  1.00  0.00     0.012 C 
ENDBRANCH   2   3
BRANCH   2  14
ATOM     14  N   UNL     1       9.552  -3.869   4.864  1.00  0.00    -0.346 N 
ATOM     15  C   UNL     1       8.477  -3.090   5.404  1.00  0.00     0.243 C 
ATOM     16  O   UNL     1       8.474  -3.029   6.690  1.00  0.00    -0.273 OA
ATOM     17  H   UNL     1       9.611  -3.963   3.820  1.00  0.00     0.164 HD
BRANCH  15  18
ATOM     18  C   UNL     1       7.450  -2.412   4.689  1.00  0.00     0.174 C 
ATOM     19  C   UNL     1       7.802  -1.779   3.386  1.00  0.00     0.037 C 
ATOM     20  N   UNL     1       6.213  -3.077   4.334  1.00  0.00    -0.327 N 
ATOM     21  C   UNL     1       6.449  -1.063   3.138  1.00  0.00     0.024 C 
ATOM     22  C   UNL     1       5.398  -1.983   3.778  1.00  0.00     0.121 C 
BRANCH  20  23
ATOM     23  C   UNL     1       5.942  -4.422   4.546  1.00  0.00     0.254 C 
ATOM     24  O   UNL     1       6.345  -5.224   3.620  1.00  0.00    -0.269 OA
BRANCH  23  25
ATOM     25  C   UNL     1       5.276  -5.076   5.645  1.00  0.00     0.041 A 
ATOM     26  C   UNL     1       4.362  -4.321   6.392  1.00  0.00     0.014 A 
ATOM     27  C   UNL     1       5.407  -6.383   6.023  1.00  0.00     0.033 A 
ATOM     28  C   UNL     1       3.646  -4.880   7.443  1.00  0.00     0.002 A 
ATOM     29  C   UNL     1       4.687  -6.950   7.082  1.00  0.00     0.053 A 
ATOM     30  C   UNL     1       3.804  -6.192   7.794  1.00  0.00     0.019 A 
ATOM     31  C   UNL     1       4.869  -8.326   7.430  1.00  0.00     0.099 C 
ATOM     32  N   UNL     1       5.001  -9.432   7.695  1.00  0.00    -0.192 NA
ENDBRANCH  23  25
ENDBRANCH  20  23
ENDBRANCH  15  18
ENDBRANCH   2  14
ENDBRANCH   1   2
BRANCH   1  33
ATOM     33  C   UNL     1      12.259  -3.440   4.308  1.00  0.00     0.004 C 
BRANCH  33  34
ATOM     34  C   UNL     1      12.640  -4.162   3.024  1.00  0.00     0.015 C 
BRANCH  34  35
ATOM     35  C   UNL     1      11.518  -4.104   2.011  1.00  0.00     0.077 C 
BRANCH  35  36
ATOM     36  N   UNL     1      10.661  -5.269   2.103  1.00  0.00    -0.330 NA
ATOM     37  H   UNL     1       9.687  -5.000   1.920  1.00  0.00     0.118 HD
ATOM     38  H   UNL     1      10.825  -5.788   2.991  1.00  0.00     0.118 HD
ENDBRANCH  35  36
ENDBRANCH  34  35
ENDBRANCH  33  34
ENDBRANCH   1  33
TORSDOF 10
ENDMDL
MODEL 9
REMARK VINA RESULT:    -7.299      2.170      7.750
REMARK INTER + INTRA:         -13.614
REMARK INTER:                 -11.644
REMARK INTRA:                  -1.970
REMARK UNBOUND:                -2.261
REMARK SMILES CC1(C)C2CC3OC(C(CCCCN)NC(=O)C4CCCN4C(=O)c4cccc(C#N)c4)OC3C21
REMARK SMILES IDX 10 1 9 2 8 3 2 4 4 5 35 6 5 7 34 8 6 9 33 10 7 11 1 12 3 13
REMARK SMILES IDX 15 14 16 15 17 16 18 18 19 19 22 20 20 21 21 22 23 23 24 24
REMARK SMILES IDX 25 25 26 26 32 27 27 28 29 29 28 30 30 31 31 32 11 33 12 34
REMARK SMILES IDX 13 35 14 36
REMARK H PARENT 15 17 14 37 14 38
ROOT
ATOM      1  C   UNL     1       5.345  -7.334   6.219  1.00  0.00     0.030 C 
ENDROOT
BRANCH   1   2
ATOM      2  C   UNL     1       6.574  -6.535   6.326  1.00  0.00     0.138 C 
BRANCH   2   3
ATOM      3  C   UNL     1       6.433  -5.166   5.655  1.00  0.00     0.273 C 
ATOM      4  C   UNL     1       5.424  -0.915   5.149  1.00  0.00    -0.026 C 
ATOM      5  C   UNL     1       4.198  -1.736   5.003  1.00  0.00     0.004 C 
ATOM      6  C   UNL     1       5.245  -1.954   6.152  1.00  0.00     0.030 C 
ATOM      7  C   UNL     1       4.201  -3.005   4.187  1.00  0.00     0.039 C 
ATOM      8  C   UNL     1       5.368  -3.371   6.100  1.00  0.00     0.154 C 
ATOM      9  C   UNL     1       5.382  -3.724   4.613  1.00  0.00     0.151 C 
ATOM     10  O   UNL     1       6.434  -4.097   6.511  1.00  0.00    -0.344 OA
ATOM     11  O   UNL     1       5.308  -5.098   4.826  1.00  0.00    -0.344 OA
ATOM     12  C   UNL     1       6.513  -0.956   4.102  1.00  0.00     0.012 C 
ATOM     13  C   UNL     1       5.065   0.516   5.530  1.00  0.00     0.012 C 
ENDBRANCH   2   3
BRANCH   2  14
ATOM     14  N   UNL     1       7.736  -7.089   5.658  1.00  0.00    -0.346 N 
ATOM     15  C   UNL     1       8.497  -8.103   6.325  1.00  0.00     0.243 C 
ATOM     16  O   UNL     1       8.037  -8.419   7.487  1.00  0.00    -0.273 OA
ATOM     17  H   UNL     1       8.060  -6.781   4.708  1.00  0.00     0.164 HD
BRANCH  15  18
ATOM     18  C   UNL     1       9.667  -8.763   5.857  1.00  0.00     0.174 C 
ATOM     19  C   UNL     1      10.012  -8.638   4.411  1.00  0.00     0.037 C 
ATOM     20  N   UNL     1      10.963  -8.519   6.459  1.00  0.00    -0.327 N 
ATOM     21  C   UNL     1      11.198  -9.638   4.402  1.00  0.00     0.024 C 
ATOM     22  C   UNL     1      11.826  -9.512   5.798  1.00  0.00     0.121 C 
BRANCH  20  23
ATOM     23  C   UNL     1      11.217  -7.577   7.447  1.00  0.00     0.254 C 
ATOM     24  O   UNL     1      11.073  -7.989   8.661  1.00  0.00    -0.269 OA
BRANCH  23  25
ATOM     25  C   UNL     1      11.621  -6.197   7.336  1.00  0.00     0.041 A 
ATOM     26  C   UNL     1      11.497  -5.584   6.082  1.00  0.00     0.014 A 
ATOM     27  C   UNL     1      12.081  -5.394   8.341  1.00  0.00     0.033 A 
ATOM     28  C   UNL     1      11.826  -4.247   5.891  1.00  0.00     0.002 A 
ATOM     29  C   UNL     1      12.414  -4.046   8.153  1.00  0.00     0.053 A 
ATOM     30  C   UNL     1      12.285  -3.473   6.922  1.00  0.00     0.019 A 
ATOM     31  C   UNL     1      12.891  -3.256   9.246  1.00  0.00     0.099 C 
ATOM     32  N   UNL     1      13.254  -2.620  10.126  1.00  0.00    -0.192 NA
ENDBRANCH  23  25
ENDBRANCH  20  23
ENDBRANCH  15  18
ENDBRANCH   2  14
ENDBRANCH   1   2
BRANCH   1  33
ATOM     33  C   UNL     1       4.614  -7.654   7.468  1.00  0.00     0.004 C 
BRANCH  33  34
ATOM     34  C   UNL     1       4.635  -9.138   7.802  1.00  0.00     0.015 C 
BRANCH  34  35
ATOM     35  C   UNL     1       5.098  -9.958   6.617  1.00  0.00     0.077 C 
BRANCH  35  36
ATOM     36  N   UNL     1       6.149 -10.882   6.992  1.00  0.00    -0.330 NA
ATOM     37  H   UNL     1       6.521 -11.344   6.152  1.00  0.00     0.118 HD
ATOM     38  H   UNL     1       5.838 -11.518   7.755  1.00  0.00     0.118 HD
ENDBRANCH  35  36
ENDBRANCH  34  35
ENDBRANCH  33  34
ENDBRANCH   1  33
TORSDOF 10
ENDMDL
