REMARK SMILES CC(C)(CN(CC(=O)NC(CCNN=C(N)N)B(O)O)C(=O)CCc1ccccc1)c1ccccc1
REMARK SMILES IDX 7 1 8 2 9 3 6 5 5 6 4 7 2 8 1 9 3 10 31 11 32 12 36 13 33 14
REMARK SMILES IDX 35 15 34 16 21 17 22 18 23 19 24 20 25 21 26 22 30 23 27 24
REMARK SMILES IDX 29 25 28 26 10 27 11 28 12 29 13 30 14 32 15 33 16 34 17 35
REMARK SMILES IDX 18 40 19 41 20 43
REMARK H PARENT 9 4 13 31 16 36 16 37 17 38 17 39 19 42 20 44
ROOT
ATOM      1  C   UNL     1       0.629   0.293   0.246  1.00  0.00     0.239 C 
ATOM      2  O   UNL     1       0.000  -0.046  -0.779  1.00  0.00    -0.273 OA
ATOM      3  N   UNL     1       1.909   0.890   0.038  1.00  0.00    -0.353 N 
ATOM      4  H   UNL     1       2.489   1.198   0.849  1.00  0.00     0.163 HD
ENDROOT
BRANCH   1   5
ATOM      5  C   UNL     1       0.180   0.137   1.636  1.00  0.00     0.219 C 
BRANCH   5   6
ATOM      6  N   UNL     1      -1.106  -0.508   1.816  1.00  0.00    -0.333 N 
BRANCH   6   7
ATOM      7  C   UNL     1      -1.234  -1.887   2.172  1.00  0.00     0.131 C 
BRANCH   7   8
ATOM      8  C   UNL     1      -1.392  -2.947   1.163  1.00  0.00     0.007 C 
ATOM      9  C   UNL     1      -0.293  -3.085   0.179  1.00  0.00     0.018 C 
ATOM     10  C   UNL     1      -1.294  -4.275   2.014  1.00  0.00     0.018 C 
BRANCH   8  11
ATOM     11  C   UNL     1      -2.704  -3.041   0.496  1.00  0.00    -0.041 A 
ATOM     12  C   UNL     1      -3.850  -3.089   1.298  1.00  0.00     0.004 A 
ATOM     13  C   UNL     1      -2.918  -3.091  -0.856  1.00  0.00     0.004 A 
ATOM     14  C   UNL     1      -5.117  -3.180   0.768  1.00  0.00     0.000 A 
ATOM     15  C   UNL     1      -4.203  -3.183  -1.397  1.00  0.00     0.000 A 
ATOM     16  C   UNL     1      -5.321  -3.229  -0.595  1.00  0.00     0.000 A 
ENDBRANCH   8  11
ENDBRANCH   7   8
ENDBRANCH   6   7
BRANCH   6  17
ATOM     17  C   UNL     1      -2.249   0.381   1.699  1.00  0.00     0.223 C 
ATOM     18  O   UNL     1      -3.420  -0.025   1.914  1.00  0.00    -0.275 OA
BRANCH  17  19
ATOM     19  C   UNL     1      -2.092   1.804   1.323  1.00  0.00     0.105 C 
BRANCH  19  20
ATOM     20  C   UNL     1      -3.443   2.469   1.197  1.00  0.00     0.045 C 
BRANCH  20  21
ATOM     21  C   UNL     1      -3.321   3.883   0.828  1.00  0.00    -0.048 A 
ATOM     22  C   UNL     1      -3.292   4.332  -0.477  1.00  0.00     0.004 A 
ATOM     23  C   UNL     1      -3.229   4.806   1.871  1.00  0.00     0.004 A 
ATOM     24  C   UNL     1      -3.172   5.690  -0.683  1.00  0.00     0.000 A 
ATOM     25  C   UNL     1      -3.110   6.160   1.650  1.00  0.00     0.000 A 
ATOM     26  C   UNL     1      -3.082   6.602   0.337  1.00  0.00     0.000 A 
ENDBRANCH  20  21
ENDBRANCH  19  20
ENDBRANCH  17  19
ENDBRANCH   6  17
ENDBRANCH   5   6
ENDBRANCH   1   5
BRANCH   3  27
ATOM     27  C   UNL     1       2.422   1.079  -1.288  1.00  0.00     0.115 C 
BRANCH  27  28
ATOM     28  C   UNL     1       3.720   0.289  -1.348  1.00  0.00     0.045 C 
BRANCH  28  29
ATOM     29  C   UNL     1       4.382   0.392  -2.705  1.00  0.00     0.136 C 
BRANCH  29  30
ATOM     30  N   UNL     1       5.593  -0.403  -2.602  1.00  0.00    -0.307 N 
ATOM     31  H   UNL     1       6.545  -0.002  -2.757  1.00  0.00     0.183 HD
BRANCH  30  32
ATOM     32  N   UNL     1       5.446  -1.771  -2.278  1.00  0.00    -0.144 NA
ATOM     33  C   UNL     1       6.365  -2.324  -1.525  1.00  0.00     0.208 C 
ATOM     34  N   UNL     1       7.419  -1.449  -1.120  1.00  0.00    -0.369 N 
ATOM     35  N   UNL     1       6.305  -3.681  -1.148  1.00  0.00    -0.369 N 
ATOM     36  H   UNL     1       7.255  -0.871  -0.283  1.00  0.00     0.159 HD
ATOM     37  H   UNL     1       8.326  -1.376  -1.630  1.00  0.00     0.159 HD
ATOM     38  H   UNL     1       7.009  -4.341  -1.530  1.00  0.00     0.159 HD
ATOM     39  H   UNL     1       5.583  -4.054  -0.499  1.00  0.00     0.159 HD
ENDBRANCH  30  32
ENDBRANCH  29  30
ENDBRANCH  28  29
ENDBRANCH  27  28
BRANCH  27  40
ATOM     40  B   UNL     1       2.670   2.609  -1.619  1.00  0.00     0.475 B 
BRANCH  40  41
ATOM     41  O   UNL     1       3.852   3.208  -0.965  1.00  0.00    -0.426 OA
ATOM     42  H   UNL     1       4.518   3.486  -1.648  1.00  0.00     0.189 HD
ENDBRANCH  40  41
BRANCH  40  43
ATOM     43  O   UNL     1       2.381   3.109  -2.977  1.00  0.00    -0.426 OA
ATOM     44  H   UNL     1       1.622   2.574  -3.365  1.00  0.00     0.189 HD
ENDBRANCH  40  43
ENDBRANCH  27  40
ENDBRANCH   3  27
TORSDOF 17
