REMARK SMILES CC1=CC(C(=O)NC(CCCCN)C(=O)C(=O)NSCc2ccc(C(N)=O)cc2)n2c(=O)n(CC(c3ccccc3)c3ccccc3)c(=O)n2C1
REMARK SMILES IDX 14 1 15 2 8 3 7 4 5 5 6 6 4 8 2 9 3 10 51 11 50 12 30 13
REMARK SMILES IDX 48 14 31 15 33 16 49 17 32 18 1 19 34 20 35 21 36 22 37 23
REMARK SMILES IDX 41 24 38 25 40 26 39 27 42 28 43 29 47 30 44 31 46 32 45 33
REMARK SMILES IDX 9 34 10 35 11 36 12 37 13 38 16 41 17 42 18 43 19 45 20 46
REMARK SMILES IDX 21 47 22 48 29 49 23 50 28 51 24 52 25 53 26 54 27 55
REMARK H PARENT 7 7 13 39 13 40 18 44 26 56 26 57
ROOT
ATOM      1  C   UNL     1       2.125  -1.451   1.095  1.00  0.00     0.242 C 
ATOM      2  O   UNL     1       2.502  -2.582   1.406  1.00  0.00    -0.286 OA
ENDROOT
BRANCH   1   3
ATOM      3  C   UNL     1       1.153  -1.155  -0.051  1.00  0.00     0.159 C 
BRANCH   3   4
ATOM      4  N   UNL     1       0.644   0.211  -0.105  1.00  0.00    -0.344 N 
ATOM      5  C   UNL     1      -0.554   0.539  -0.718  1.00  0.00     0.249 C 
ATOM      6  O   UNL     1      -1.275  -0.320  -1.226  1.00  0.00    -0.272 OA
ATOM      7  H   UNL     1       1.259   0.961   0.217  1.00  0.00     0.164 HD
BRANCH   5   8
ATOM      8  C   UNL     1      -0.839   2.061  -0.751  1.00  0.00     0.223 C 
ATOM      9  C   UNL     1      -0.916   3.110  -3.046  1.00  0.00    -0.053 C 
ATOM     10  C   UNL     1      -0.204   2.645  -1.996  1.00  0.00     0.011 C 
ATOM     11  C   UNL     1      -2.431   3.084  -3.066  1.00  0.00     0.178 C 
ATOM     12  N   UNL     1      -2.942   2.268  -1.987  1.00  0.00    -0.226 N 
ATOM     13  N   UNL     1      -2.255   2.344  -0.772  1.00  0.00    -0.214 N 
ATOM     14  C   UNL     1      -4.306   2.201  -1.672  1.00  0.00     0.347 C 
ATOM     15  C   UNL     1      -3.147   2.087   0.262  1.00  0.00     0.348 C 
ATOM     16  N   UNL     1      -4.402   2.020  -0.304  1.00  0.00    -0.242 N 
ATOM     17  O   UNL     1      -5.237   2.336  -2.454  1.00  0.00    -0.246 OA
ATOM     18  O   UNL     1      -2.849   1.949   1.439  1.00  0.00    -0.246 OA
ATOM     19  C   UNL     1      -0.260   3.688  -4.266  1.00  0.00     0.041 C 
BRANCH  16  20
ATOM     20  C   UNL     1      -5.641   1.809   0.421  1.00  0.00     0.145 C 
BRANCH  20  21
ATOM     21  C   UNL     1      -6.241   0.396   0.210  1.00  0.00     0.069 C 
BRANCH  21  22
ATOM     22  C   UNL     1      -7.685   0.252   0.701  1.00  0.00    -0.039 A 
ATOM     23  C   UNL     1      -8.234   1.052   1.717  1.00  0.00     0.004 A 
ATOM     24  C   UNL     1      -8.500  -0.739   0.124  1.00  0.00     0.004 A 
ATOM     25  C   UNL     1      -9.559   0.876   2.128  1.00  0.00     0.000 A 
ATOM     26  C   UNL     1      -9.822  -0.917   0.539  1.00  0.00     0.000 A 
ATOM     27  C   UNL     1     -10.351  -0.107   1.540  1.00  0.00     0.000 A 
ENDBRANCH  21  22
BRANCH  21  28
ATOM     28  C   UNL     1      -5.312  -0.682   0.770  1.00  0.00    -0.039 A 
ATOM     29  C   UNL     1      -4.432  -1.358  -0.091  1.00  0.00     0.004 A 
ATOM     30  C   UNL     1      -5.272  -0.988   2.140  1.00  0.00     0.004 A 
ATOM     31  C   UNL     1      -3.540  -2.312   0.401  1.00  0.00     0.000 A 
ATOM     32  C   UNL     1      -4.385  -1.951   2.630  1.00  0.00     0.000 A 
ATOM     33  C   UNL     1      -3.519  -2.610   1.762  1.00  0.00     0.000 A 
ENDBRANCH  21  28
ENDBRANCH  20  21
ENDBRANCH  16  20
ENDBRANCH   5   8
ENDBRANCH   3   4
BRANCH   3  34
ATOM     34  C   UNL     1       1.789  -1.573  -1.390  1.00  0.00     0.033 C 
BRANCH  34  35
ATOM     35  C   UNL     1       2.881  -0.611  -1.881  1.00  0.00     0.004 C 
BRANCH  35  36
ATOM     36  C   UNL     1       3.503  -1.100  -3.192  1.00  0.00     0.015 C 
BRANCH  36  37
ATOM     37  C   UNL     1       4.387  -0.052  -3.875  1.00  0.00     0.077 C 
BRANCH  37  38
ATOM     38  N   UNL     1       5.546   0.330  -3.085  1.00  0.00    -0.330 NA
ATOM     39  H   UNL     1       6.105  -0.489  -2.848  1.00  0.00     0.118 HD
ATOM     40  H   UNL     1       5.258   0.750  -2.202  1.00  0.00     0.118 HD
ENDBRANCH  37  38
ENDBRANCH  36  37
ENDBRANCH  35  36
ENDBRANCH  34  35
ENDBRANCH   3  34
ENDBRANCH   1   3
BRANCH   1  41
ATOM     41  C   UNL     1       2.709  -0.277   1.878  1.00  0.00     0.299 C 
ATOM     42  O   UNL     1       2.703   0.846   1.394  1.00  0.00    -0.265 OA
ATOM     43  N   UNL     1       3.191  -0.674   3.107  1.00  0.00    -0.293 N 
ATOM     44  H   UNL     1       3.152  -1.670   3.318  1.00  0.00     0.178 HD
BRANCH  43  45
ATOM     45  S   UNL     1       3.938   0.393   4.185  1.00  0.00    -0.045 SA
BRANCH  45  46
ATOM     46  C   UNL     1       5.376  -0.599   4.699  1.00  0.00     0.128 C 
BRANCH  46  47
ATOM     47  C   UNL     1       6.367  -0.834   3.584  1.00  0.00    -0.036 A 
ATOM     48  C   UNL     1       6.393  -2.050   2.888  1.00  0.00     0.005 A 
ATOM     49  C   UNL     1       7.277   0.170   3.223  1.00  0.00     0.005 A 
ATOM     50  C   UNL     1       7.326  -2.269   1.868  1.00  0.00     0.014 A 
ATOM     51  C   UNL     1       8.210  -0.048   2.206  1.00  0.00     0.014 A 
ATOM     52  C   UNL     1       8.252  -1.275   1.535  1.00  0.00     0.039 A 
BRANCH  52  53
ATOM     53  C   UNL     1       9.284  -1.464   0.479  1.00  0.00     0.248 C 
ATOM     54  N   UNL     1       9.601  -2.745   0.121  1.00  0.00    -0.366 N 
ATOM     55  O   UNL     1       9.870  -0.515  -0.027  1.00  0.00    -0.270 OA
ATOM     56  H   UNL     1      10.400  -2.838  -0.498  1.00  0.00     0.159 HD
ATOM     57  H   UNL     1       9.378  -3.539   0.703  1.00  0.00     0.159 HD
ENDBRANCH  52  53
ENDBRANCH  46  47
ENDBRANCH  45  46
ENDBRANCH  43  45
ENDBRANCH   1  41
TORSDOF 17
