REMARK SMILES CC1(N)C2CC3OB(C(CCCCN)NC(=O)C4CCCN4C(=O)c4cccc(Cc5ccccc5C(F)(F)F)c4)OC3(C)C1C2
REMARK SMILES IDX 15 1 16 2 17 3 9 5 8 6 2 7 4 8 45 9 5 10 46 11 43 12 6 13
REMARK SMILES IDX 42 14 7 15 1 16 44 17 3 18 10 21 11 22 12 23 13 24 14 25
REMARK SMILES IDX 18 28 19 29 22 30 20 31 21 32 23 33 24 34 25 35 26 36 41 37
REMARK SMILES IDX 27 38 29 39 28 40 30 41 31 42 32 43 36 44 33 45 35 46 34 47
REMARK SMILES IDX 37 48 38 49 39 50 40 51
REMARK H PARENT 15 4 3 19 3 20 14 26 14 27
ROOT
ATOM      1  N   UNL     1      -0.489   0.383   0.318  1.00  0.00    -0.353 N 
ATOM      2  C   UNL     1      -0.872   1.087   1.467  1.00  0.00     0.242 C 
ATOM      3  O   UNL     1      -1.915   1.812   1.555  1.00  0.00    -0.273 OA
ATOM      4  H   UNL     1       0.396  -0.209   0.349  1.00  0.00     0.163 HD
ENDROOT
BRANCH   1   5
ATOM      5  C   UNL     1      -1.187   0.372  -0.951  1.00  0.00     0.114 C 
BRANCH   5   6
ATOM      6  B   UNL     1      -2.179  -0.820  -1.084  1.00  0.00     0.481 B 
ATOM      7  C   UNL     1      -5.704  -2.143   0.348  1.00  0.00     0.021 C 
ATOM      8  C   UNL     1      -5.153  -3.568   0.299  1.00  0.00     0.012 C 
ATOM      9  C   UNL     1      -5.544  -2.119  -1.164  1.00  0.00     0.042 C 
ATOM     10  C   UNL     1      -3.654  -3.479   0.290  1.00  0.00     0.039 C 
ATOM     11  C   UNL     1      -5.684  -3.635  -1.128  1.00  0.00     0.014 C 
ATOM     12  C   UNL     1      -4.117  -1.802  -1.518  1.00  0.00     0.080 C 
ATOM     13  C   UNL     1      -3.175  -2.874  -1.031  1.00  0.00     0.132 C 
ATOM     14  O   UNL     1      -3.636  -0.690  -0.855  1.00  0.00    -0.402 OA
ATOM     15  O   UNL     1      -1.936  -2.257  -0.864  1.00  0.00    -0.404 OA
ATOM     16  C   UNL     1      -7.122  -2.077   0.821  1.00  0.00     0.028 C 
ATOM     17  C   UNL     1      -4.026  -1.699  -3.028  1.00  0.00     0.044 C 
BRANCH   7  18
ATOM     18  N   UNL     1      -4.856  -1.227   1.068  1.00  0.00    -0.325 NA
ATOM     19  H   UNL     1      -5.371  -0.308   1.086  1.00  0.00     0.119 HD
ATOM     20  H   UNL     1      -4.846  -1.545   2.074  1.00  0.00     0.119 HD
ENDBRANCH   7  18
ENDBRANCH   5   6
BRANCH   5  21
ATOM     21  C   UNL     1      -1.970   1.677  -1.143  1.00  0.00     0.022 C 
BRANCH  21  22
ATOM     22  C   UNL     1      -1.060   2.873  -1.076  1.00  0.00     0.003 C 
BRANCH  22  23
ATOM     23  C   UNL     1      -1.848   4.153  -1.249  1.00  0.00     0.015 C 
BRANCH  23  24
ATOM     24  C   UNL     1      -2.903   4.366  -0.219  1.00  0.00     0.077 C 
BRANCH  24  25
ATOM     25  N   UNL     1      -3.565   5.643  -0.535  1.00  0.00    -0.330 NA
ATOM     26  H   UNL     1      -2.918   6.398  -0.155  1.00  0.00     0.118 HD
ATOM     27  H   UNL     1      -3.554   5.807  -1.580  1.00  0.00     0.118 HD
ENDBRANCH  24  25
ENDBRANCH  23  24
ENDBRANCH  22  23
ENDBRANCH  21  22
ENDBRANCH   5  21
ENDBRANCH   1   5
BRANCH   2  28
ATOM     28  C   UNL     1      -0.049   1.031   2.711  1.00  0.00     0.174 C 
ATOM     29  C   UNL     1      -0.763   0.207   3.774  1.00  0.00     0.037 C 
ATOM     30  N   UNL     1       1.233   0.388   2.515  1.00  0.00    -0.327 N 
ATOM     31  C   UNL     1       0.316  -0.741   4.281  1.00  0.00     0.024 C 
ATOM     32  C   UNL     1       1.104  -0.965   3.005  1.00  0.00     0.121 C 
BRANCH  30  33
ATOM     33  C   UNL     1       2.361   1.050   1.947  1.00  0.00     0.254 C 
ATOM     34  O   UNL     1       2.297   2.254   1.559  1.00  0.00    -0.269 OA
BRANCH  33  35
ATOM     35  C   UNL     1       3.649   0.391   1.780  1.00  0.00     0.040 A 
ATOM     36  C   UNL     1       4.409   0.246   2.947  1.00  0.00     0.014 A 
ATOM     37  C   UNL     1       4.138  -0.071   0.588  1.00  0.00     0.018 A 
ATOM     38  C   UNL     1       5.644  -0.362   2.877  1.00  0.00     0.001 A 
ATOM     39  C   UNL     1       5.390  -0.692   0.499  1.00  0.00    -0.043 A 
ATOM     40  C   UNL     1       6.108  -0.817   1.659  1.00  0.00     0.004 A 
BRANCH  39  41
ATOM     41  C   UNL     1       5.816  -1.146  -0.836  1.00  0.00     0.071 C 
BRANCH  41  42
ATOM     42  C   UNL     1       6.197  -0.114  -1.794  1.00  0.00    -0.031 A 
ATOM     43  C   UNL     1       5.239   0.241  -2.755  1.00  0.00     0.004 A 
ATOM     44  C   UNL     1       7.398   0.544  -1.857  1.00  0.00     0.059 A 
ATOM     45  C   UNL     1       5.449   1.187  -3.720  1.00  0.00     0.000 A 
ATOM     46  C   UNL     1       7.604   1.512  -2.850  1.00  0.00     0.013 A 
ATOM     47  C   UNL     1       6.654   1.842  -3.777  1.00  0.00     0.001 A 
BRANCH  44  48
ATOM     48  C   UNL     1       8.461   0.247  -0.887  1.00  0.00     0.416 C 
ATOM     49  F   UNL     1       8.836  -1.082  -0.844  1.00  0.00    -0.166 F 
ATOM     50  F   UNL     1       8.326   0.845   0.337  1.00  0.00    -0.166 F 
ATOM     51  F   UNL     1       9.624   0.874  -1.420  1.00  0.00    -0.166 F 
ENDBRANCH  44  48
ENDBRANCH  41  42
ENDBRANCH  39  41
ENDBRANCH  33  35
ENDBRANCH  30  33
ENDBRANCH   2  28
TORSDOF 14
