REMARK SMILES CC1=CC(C(=O)NC(CCCCN)C(=O)C(=O)NOCc2ccc(C(N)=O)cc2)n2c(=O)n(CC(c3ccccc3)c3ccccc3)c(=O)n2C1
REMARK SMILES IDX 14 1 15 2 8 3 7 4 5 5 6 6 4 8 2 9 3 10 51 11 50 12 30 13
REMARK SMILES IDX 48 14 31 15 33 16 49 17 32 18 1 19 34 20 35 21 36 22 37 23
REMARK SMILES IDX 41 24 38 25 40 26 39 27 42 28 43 29 47 30 44 31 46 32 45 33
REMARK SMILES IDX 9 34 10 35 11 36 12 37 13 38 16 41 17 42 18 43 19 45 20 46
REMARK SMILES IDX 21 47 22 48 29 49 23 50 28 51 24 52 25 53 26 54 27 55
REMARK H PARENT 7 7 13 39 13 40 18 44 26 56 26 57
ROOT
ATOM      1  C   UNL     1       2.343  -0.446   0.234  1.00  0.00     0.244 C 
ATOM      2  O   UNL     1       1.745   0.486  -0.304  1.00  0.00    -0.286 OA
ENDROOT
BRANCH   1   3
ATOM      3  C   UNL     1       1.698  -1.505   1.121  1.00  0.00     0.159 C 
BRANCH   3   4
ATOM      4  N   UNL     1       0.401  -0.991   1.554  1.00  0.00    -0.344 N 
ATOM      5  C   UNL     1      -0.291  -1.498   2.626  1.00  0.00     0.249 C 
ATOM      6  O   UNL     1       0.167  -2.433   3.287  1.00  0.00    -0.272 OA
ATOM      7  H   UNL     1      -0.124  -0.466   0.857  1.00  0.00     0.164 HD
BRANCH   5   8
ATOM      8  C   UNL     1      -1.699  -0.881   2.928  1.00  0.00     0.223 C 
ATOM      9  C   UNL     1      -2.151   0.490   5.020  1.00  0.00    -0.053 C 
ATOM     10  C   UNL     1      -1.786  -0.668   4.432  1.00  0.00     0.011 C 
ATOM     11  C   UNL     1      -2.574   1.687   4.209  1.00  0.00     0.178 C 
ATOM     12  N   UNL     1      -2.869   1.260   2.865  1.00  0.00    -0.226 N 
ATOM     13  N   UNL     1      -1.961   0.382   2.234  1.00  0.00    -0.214 N 
ATOM     14  C   UNL     1      -3.493   2.027   1.886  1.00  0.00     0.347 C 
ATOM     15  C   UNL     1      -2.302   0.412   0.872  1.00  0.00     0.348 C 
ATOM     16  N   UNL     1      -3.168   1.462   0.674  1.00  0.00    -0.242 N 
ATOM     17  O   UNL     1      -4.180   3.021   2.069  1.00  0.00    -0.246 OA
ATOM     18  O   UNL     1      -1.885  -0.372   0.031  1.00  0.00    -0.246 OA
ATOM     19  C   UNL     1      -2.182   0.659   6.509  1.00  0.00     0.041 C 
BRANCH  16  20
ATOM     20  C   UNL     1      -3.752   1.825  -0.604  1.00  0.00     0.145 C 
BRANCH  20  21
ATOM     21  C   UNL     1      -5.273   1.533  -0.687  1.00  0.00     0.069 C 
BRANCH  21  22
ATOM     22  C   UNL     1      -5.646   0.115  -0.262  1.00  0.00    -0.039 A 
ATOM     23  C   UNL     1      -6.567  -0.076   0.783  1.00  0.00     0.004 A 
ATOM     24  C   UNL     1      -5.083  -1.016  -0.870  1.00  0.00     0.004 A 
ATOM     25  C   UNL     1      -6.906  -1.359   1.213  1.00  0.00     0.000 A 
ATOM     26  C   UNL     1      -5.423  -2.300  -0.438  1.00  0.00     0.000 A 
ATOM     27  C   UNL     1      -6.334  -2.471   0.602  1.00  0.00     0.000 A 
ENDBRANCH  21  22
BRANCH  21  28
ATOM     28  C   UNL     1      -5.883   1.910  -2.036  1.00  0.00    -0.039 A 
ATOM     29  C   UNL     1      -7.119   2.579  -2.067  1.00  0.00     0.004 A 
ATOM     30  C   UNL     1      -5.276   1.584  -3.259  1.00  0.00     0.004 A 
ATOM     31  C   UNL     1      -7.718   2.926  -3.279  1.00  0.00     0.000 A 
ATOM     32  C   UNL     1      -5.876   1.933  -4.472  1.00  0.00     0.000 A 
ATOM     33  C   UNL     1      -7.095   2.606  -4.482  1.00  0.00     0.000 A 
ENDBRANCH  21  28
ENDBRANCH  20  21
ENDBRANCH  16  20
ENDBRANCH   5   8
ENDBRANCH   3   4
BRANCH   3  34
ATOM     34  C   UNL     1       1.586  -2.856   0.396  1.00  0.00     0.033 C 
BRANCH  34  35
ATOM     35  C   UNL     1       0.626  -2.842  -0.802  1.00  0.00     0.004 C 
BRANCH  35  36
ATOM     36  C   UNL     1       0.695  -4.120  -1.646  1.00  0.00     0.015 C 
BRANCH  36  37
ATOM     37  C   UNL     1       0.211  -5.365  -0.904  1.00  0.00     0.077 C 
BRANCH  37  38
ATOM     38  N   UNL     1       0.247  -6.520  -1.796  1.00  0.00    -0.330 NA
ATOM     39  H   UNL     1      -0.037  -7.353  -1.279  1.00  0.00     0.118 HD
ATOM     40  H   UNL     1       1.206  -6.686  -2.100  1.00  0.00     0.118 HD
ENDBRANCH  37  38
ENDBRANCH  36  37
ENDBRANCH  35  36
ENDBRANCH  34  35
ENDBRANCH   3  34
ENDBRANCH   1   3
BRANCH   1  41
ATOM     41  C   UNL     1       3.838  -0.584  -0.023  1.00  0.00     0.313 C 
ATOM     42  O   UNL     1       4.524  -1.288   0.698  1.00  0.00    -0.263 OA
ATOM     43  N   UNL     1       4.239   0.183  -1.090  1.00  0.00    -0.228 N 
ATOM     44  H   UNL     1       3.604   0.897  -1.443  1.00  0.00     0.199 HD
BRANCH  43  45
ATOM     45  O   UNL     1       5.637   0.364  -1.224  1.00  0.00    -0.269 OA
BRANCH  45  46
ATOM     46  C   UNL     1       5.909   1.710  -1.617  1.00  0.00     0.229 C 
BRANCH  46  47
ATOM     47  C   UNL     1       7.398   1.928  -1.634  1.00  0.00    -0.020 A 
ATOM     48  C   UNL     1       8.118   1.847  -2.833  1.00  0.00     0.007 A 
ATOM     49  C   UNL     1       8.090   2.187  -0.442  1.00  0.00     0.007 A 
ATOM     50  C   UNL     1       9.500   2.049  -2.845  1.00  0.00     0.014 A 
ATOM     51  C   UNL     1       9.474   2.390  -0.452  1.00  0.00     0.014 A 
ATOM     52  C   UNL     1      10.182   2.334  -1.657  1.00  0.00     0.039 A 
BRANCH  52  53
ATOM     53  C   UNL     1      11.654   2.541  -1.721  1.00  0.00     0.248 C 
ATOM     54  N   UNL     1      12.239   3.239  -0.701  1.00  0.00    -0.366 N 
ATOM     55  O   UNL     1      12.323   2.133  -2.662  1.00  0.00    -0.270 OA
ATOM     56  H   UNL     1      13.223   3.449  -0.816  1.00  0.00     0.159 HD
ATOM     57  H   UNL     1      11.711   3.810  -0.058  1.00  0.00     0.159 HD
ENDBRANCH  52  53
ENDBRANCH  46  47
ENDBRANCH  45  46
ENDBRANCH  43  45
ENDBRANCH   1  41
TORSDOF 17
