REMARK SMILES CC1(C)C2CC3OB(C(CCCCN)NC(=O)C4CCCN4C(=O)c4cncc(Cc5ccccc5C(F)(F)F)c4)OC3(C)C1C2
REMARK SMILES IDX 15 1 16 2 17 3 9 5 8 6 2 7 4 8 45 9 5 10 46 11 43 12 6 13
REMARK SMILES IDX 42 14 7 15 1 16 3 17 44 18 10 19 11 20 12 21 13 22 14 23
REMARK SMILES IDX 18 26 19 27 22 28 20 29 21 30 23 31 24 32 25 33 26 34 41 35
REMARK SMILES IDX 27 36 29 37 28 38 30 39 31 40 32 41 36 42 33 43 35 44 34 45
REMARK SMILES IDX 37 46 38 47 39 48 40 49
REMARK H PARENT 15 4 14 24 14 25
ROOT
ATOM      1  N   UNL     1      -1.330   1.396  -0.711  1.00  0.00    -0.353 N 
ATOM      2  C   UNL     1      -0.035   0.944  -0.263  1.00  0.00     0.242 C 
ATOM      3  O   UNL     1      -0.043   0.252   0.776  1.00  0.00    -0.273 OA
ATOM      4  H   UNL     1      -1.433   1.977  -1.571  1.00  0.00     0.163 HD
ENDROOT
BRANCH   1   5
ATOM      5  C   UNL     1      -2.555   1.073  -0.004  1.00  0.00     0.114 C 
BRANCH   5   6
ATOM      6  B   UNL     1      -3.548   0.403  -1.065  1.00  0.00     0.481 B 
ATOM      7  C   UNL     1      -6.413  -2.410  -2.002  1.00  0.00    -0.027 C 
ATOM      8  C   UNL     1      -7.206  -2.014  -0.760  1.00  0.00    -0.002 C 
ATOM      9  C   UNL     1      -5.270  -2.682  -1.096  1.00  0.00     0.028 C 
ATOM     10  C   UNL     1      -6.886  -0.632  -0.301  1.00  0.00     0.037 C 
ATOM     11  C   UNL     1      -6.319  -3.029  -0.027  1.00  0.00     0.011 C 
ATOM     12  C   UNL     1      -4.533  -1.506  -0.567  1.00  0.00     0.079 C 
ATOM     13  C   UNL     1      -5.425  -0.342  -0.227  1.00  0.00     0.132 C 
ATOM     14  O   UNL     1      -3.527  -1.019  -1.401  1.00  0.00    -0.402 OA
ATOM     15  O   UNL     1      -5.001   0.700  -1.052  1.00  0.00    -0.404 OA
ATOM     16  C   UNL     1      -6.290  -1.379  -3.060  1.00  0.00     0.012 C 
ATOM     17  C   UNL     1      -6.993  -3.740  -2.495  1.00  0.00     0.012 C 
ATOM     18  C   UNL     1      -3.799  -1.988   0.690  1.00  0.00     0.044 C 
ENDBRANCH   5   6
BRANCH   5  19
ATOM     19  C   UNL     1      -3.164   2.357   0.519  1.00  0.00     0.022 C 
BRANCH  19  20
ATOM     20  C   UNL     1      -2.367   3.087   1.526  1.00  0.00     0.003 C 
BRANCH  20  21
ATOM     21  C   UNL     1      -2.075   2.386   2.797  1.00  0.00     0.015 C 
BRANCH  21  22
ATOM     22  C   UNL     1      -3.317   1.978   3.561  1.00  0.00     0.077 C 
BRANCH  22  23
ATOM     23  N   UNL     1      -4.141   3.085   3.919  1.00  0.00    -0.330 NA
ATOM     24  H   UNL     1      -4.489   3.066   4.893  1.00  0.00     0.118 HD
ATOM     25  H   UNL     1      -4.797   3.395   3.195  1.00  0.00     0.118 HD
ENDBRANCH  22  23
ENDBRANCH  21  22
ENDBRANCH  20  21
ENDBRANCH  19  20
ENDBRANCH   5  19
ENDBRANCH   1   5
BRANCH   2  26
ATOM     26  C   UNL     1       1.112   1.343  -1.059  1.00  0.00     0.174 C 
ATOM     27  C   UNL     1       1.042   2.803  -1.504  1.00  0.00     0.037 C 
ATOM     28  N   UNL     1       2.408   1.289  -0.477  1.00  0.00    -0.327 N 
ATOM     29  C   UNL     1       2.477   3.158  -1.809  1.00  0.00     0.024 C 
ATOM     30  C   UNL     1       3.270   1.868  -1.556  1.00  0.00     0.121 C 
BRANCH  28  31
ATOM     31  C   UNL     1       2.949   0.885   0.758  1.00  0.00     0.256 C 
ATOM     32  O   UNL     1       2.299   0.372   1.705  1.00  0.00    -0.269 OA
BRANCH  31  33
ATOM     33  C   UNL     1       4.393   1.051   1.035  1.00  0.00     0.058 A 
ATOM     34  C   UNL     1       4.820   2.369   1.105  1.00  0.00     0.124 A 
ATOM     35  C   UNL     1       5.256   0.013   1.214  1.00  0.00     0.021 A 
ATOM     36  N   UNL     1       6.107   2.638   1.352  1.00  0.00    -0.264 NA
ATOM     37  C   UNL     1       6.597   0.287   1.473  1.00  0.00    -0.024 A 
ATOM     38  C   UNL     1       6.956   1.644   1.528  1.00  0.00     0.115 A 
BRANCH  37  39
ATOM     39  C   UNL     1       7.598  -0.757   1.667  1.00  0.00     0.073 C 
BRANCH  39  40
ATOM     40  C   UNL     1       7.854  -1.691   0.577  1.00  0.00    -0.031 A 
ATOM     41  C   UNL     1       7.379  -3.001   0.752  1.00  0.00     0.004 A 
ATOM     42  C   UNL     1       8.548  -1.444  -0.573  1.00  0.00     0.059 A 
ATOM     43  C   UNL     1       7.593  -3.992  -0.172  1.00  0.00     0.000 A 
ATOM     44  C   UNL     1       8.763  -2.457  -1.507  1.00  0.00     0.013 A 
ATOM     45  C   UNL     1       8.301  -3.738  -1.339  1.00  0.00     0.001 A 
BRANCH  42  46
ATOM     46  C   UNL     1       9.049  -0.085  -0.874  1.00  0.00     0.416 C 
ATOM     47  F   UNL     1       9.801  -0.131  -2.043  1.00  0.00    -0.166 F 
ATOM     48  F   UNL     1       7.960   0.744  -1.223  1.00  0.00    -0.166 F 
ATOM     49  F   UNL     1       9.760   0.504   0.109  1.00  0.00    -0.166 F 
ENDBRANCH  42  46
ENDBRANCH  39  40
ENDBRANCH  37  39
ENDBRANCH  31  33
ENDBRANCH  28  31
ENDBRANCH   2  26
TORSDOF 13
