REMARK SMILES CC1(C)C2CC3OB(C(CCCCN)NC(=O)C4CCCN4C(=O)c4cccc(Cc5cnc6c(c5)OCO6)c4)OC3(C)C1C2
REMARK SMILES IDX 9 1 8 2 2 3 4 4 44 5 5 6 45 7 42 8 6 9 41 10 7 11 1 12 3 13
REMARK SMILES IDX 43 14 10 15 11 16 12 17 13 18 14 19 15 22 16 23 17 24 18 26
REMARK SMILES IDX 19 27 22 28 20 29 21 30 23 31 24 32 25 33 26 34 40 35 27 36
REMARK SMILES IDX 29 37 28 38 30 39 31 40 32 41 36 42 33 43 35 44 34 45 37 46
REMARK SMILES IDX 39 47 38 48
REMARK H PARENT 14 20 14 21 15 25
ROOT
ATOM      1  C   UNL     1      -2.315  -1.273  -0.819  1.00  0.00     0.114 C 
ENDROOT
BRANCH   1   2
ATOM      2  B   UNL     1      -2.685   0.090  -0.119  1.00  0.00     0.481 B 
ATOM      3  C   UNL     1      -4.414   3.604   1.008  1.00  0.00    -0.027 C 
ATOM      4  C   UNL     1      -5.777   2.951   1.069  1.00  0.00    -0.002 C 
ATOM      5  C   UNL     1      -4.345   3.192  -0.415  1.00  0.00     0.028 C 
ATOM      6  C   UNL     1      -5.698   1.466   1.192  1.00  0.00     0.037 C 
ATOM      7  C   UNL     1      -5.878   3.299  -0.418  1.00  0.00     0.011 C 
ATOM      8  C   UNL     1      -4.032   1.755  -0.684  1.00  0.00     0.079 C 
ATOM      9  C   UNL     1      -4.724   0.821   0.269  1.00  0.00     0.132 C 
ATOM     10  O   UNL     1      -2.683   1.434  -0.667  1.00  0.00    -0.402 OA
ATOM     11  O   UNL     1      -3.687   0.174   0.972  1.00  0.00    -0.404 OA
ATOM     12  C   UNL     1      -3.409   3.108   1.975  1.00  0.00     0.012 C 
ATOM     13  C   UNL     1      -4.609   5.124   1.084  1.00  0.00     0.012 C 
ATOM     14  C   UNL     1      -4.524   1.469  -2.099  1.00  0.00     0.044 C 
ENDBRANCH   1   2
BRANCH   1  15
ATOM     15  C   UNL     1      -3.393  -2.295  -0.691  1.00  0.00     0.022 C 
BRANCH  15  16
ATOM     16  C   UNL     1      -3.855  -2.731   0.626  1.00  0.00     0.003 C 
BRANCH  16  17
ATOM     17  C   UNL     1      -2.818  -3.379   1.456  1.00  0.00     0.015 C 
BRANCH  17  18
ATOM     18  C   UNL     1      -2.264  -4.631   0.788  1.00  0.00     0.077 C 
BRANCH  18  19
ATOM     19  N   UNL     1      -1.298  -5.181   1.723  1.00  0.00    -0.330 NA
ATOM     20  H   UNL     1      -0.943  -6.098   1.402  1.00  0.00     0.118 HD
ATOM     21  H   UNL     1      -1.615  -5.148   2.698  1.00  0.00     0.118 HD
ENDBRANCH  18  19
ENDBRANCH  17  18
ENDBRANCH  16  17
ENDBRANCH  15  16
ENDBRANCH   1  15
BRANCH   1  22
ATOM     22  N   UNL     1      -0.967  -1.719  -0.633  1.00  0.00    -0.353 N 
ATOM     23  C   UNL     1      -0.272  -2.203  -1.789  1.00  0.00     0.242 C 
ATOM     24  O   UNL     1      -0.831  -2.237  -2.927  1.00  0.00    -0.273 OA
ATOM     25  H   UNL     1      -0.429  -1.725   0.249  1.00  0.00     0.163 HD
BRANCH  23  26
ATOM     26  C   UNL     1       1.138  -2.696  -1.745  1.00  0.00     0.174 C 
ATOM     27  C   UNL     1       1.041  -4.205  -2.035  1.00  0.00     0.037 C 
ATOM     28  N   UNL     1       1.801  -2.524  -0.513  1.00  0.00    -0.327 N 
ATOM     29  C   UNL     1       1.347  -4.857  -0.730  1.00  0.00     0.024 C 
ATOM     30  C   UNL     1       1.624  -3.793   0.264  1.00  0.00     0.121 C 
BRANCH  28  31
ATOM     31  C   UNL     1       2.541  -1.494   0.120  1.00  0.00     0.254 C 
ATOM     32  O   UNL     1       2.933  -1.849   1.314  1.00  0.00    -0.269 OA
BRANCH  31  33
ATOM     33  C   UNL     1       2.905  -0.195  -0.330  1.00  0.00     0.040 A 
ATOM     34  C   UNL     1       2.552   0.418  -1.501  1.00  0.00     0.014 A 
ATOM     35  C   UNL     1       3.751   0.557   0.507  1.00  0.00     0.018 A 
ATOM     36  C   UNL     1       2.984   1.695  -1.868  1.00  0.00     0.001 A 
ATOM     37  C   UNL     1       4.185   1.820   0.156  1.00  0.00    -0.043 A 
ATOM     38  C   UNL     1       3.813   2.417  -1.037  1.00  0.00     0.004 A 
BRANCH  37  39
ATOM     39  C   UNL     1       5.067   2.576   1.078  1.00  0.00     0.072 C 
BRANCH  39  40
ATOM     40  C   UNL     1       6.504   2.348   0.862  1.00  0.00    -0.021 A 
ATOM     41  C   UNL     1       7.142   3.149  -0.086  1.00  0.00     0.119 A 
ATOM     42  C   UNL     1       7.235   1.386   1.569  1.00  0.00     0.058 A 
ATOM     43  N   UNL     1       8.464   3.014  -0.338  1.00  0.00    -0.218 NA
ATOM     44  C   UNL     1       8.601   1.260   1.295  1.00  0.00     0.186 A 
ATOM     45  C   UNL     1       9.185   2.084   0.341  1.00  0.00     0.260 A 
ATOM     46  O   UNL     1       9.611   0.433   1.794  1.00  0.00    -0.452 OA
ATOM     47  O   UNL     1      10.529   1.755   0.269  1.00  0.00    -0.437 OA
ATOM     48  C   UNL     1      10.862   0.814   1.276  1.00  0.00     0.469 C 
ENDBRANCH  39  40
ENDBRANCH  37  39
ENDBRANCH  31  33
ENDBRANCH  28  31
ENDBRANCH  23  26
ENDBRANCH   1  22
TORSDOF 12
