REMARK SMILES Cc1ccc(NS(=O)(=O)Nc2ccccc2)c(=O)n1CC(=O)NCc1ccc(C(=N)N)s1
REMARK SMILES IDX 20 1 19 2 2 3 3 4 4 5 17 6 5 7 18 8 1 9 6 10 7 12 8 13 9 14
REMARK SMILES IDX 10 15 11 17 12 18 16 19 13 20 15 21 14 22 21 23 22 24 23 25
REMARK SMILES IDX 24 27 25 28 26 29 32 30 27 31 28 32 29 33 30 34 31 35
REMARK H PARENT 6 11 10 16 23 26 30 36 31 37 31 38
ROOT
ATOM      1  C   UNL     1      -0.927   0.498   2.898  1.00  0.00     0.225 C 
ENDROOT
BRANCH   1   2
ATOM      2  N   UNL     1       0.449   0.352   2.428  1.00  0.00    -0.302 N 
ATOM      3  C   UNL     1       1.471  -0.143   3.251  1.00  0.00     0.019 C 
ATOM      4  C   UNL     1       2.711  -0.301   2.752  1.00  0.00     0.024 C 
ATOM      5  C   UNL     1       3.020   0.011   1.380  1.00  0.00     0.034 C 
ATOM      6  C   UNL     1       0.666   0.680   1.083  1.00  0.00     0.275 C 
ATOM      7  C   UNL     1       2.052   0.455   0.575  1.00  0.00     0.116 C 
ATOM      8  O   UNL     1      -0.189   1.144   0.329  1.00  0.00    -0.267 OA
ATOM      9  C   UNL     1       1.188  -0.487   4.689  1.00  0.00     0.064 C 
BRANCH   7  10
ATOM     10  N   UNL     1       2.375   0.787  -0.779  1.00  0.00    -0.261 N 
ATOM     11  H   UNL     1       1.624   1.382  -1.157  1.00  0.00     0.182 HD
BRANCH  10  12
ATOM     12  S   UNL     1       2.373  -0.565  -1.801  1.00  0.00     0.321 S 
ATOM     13  O   UNL     1       1.428  -1.538  -1.306  1.00  0.00    -0.183 OA
ATOM     14  O   UNL     1       2.285  -0.080  -3.160  1.00  0.00    -0.183 OA
BRANCH  12  15
ATOM     15  N   UNL     1       3.911  -1.212  -1.544  1.00  0.00    -0.267 N 
ATOM     16  H   UNL     1       3.866  -2.200  -1.797  1.00  0.00     0.181 HD
BRANCH  15  17
ATOM     17  C   UNL     1       5.016  -0.533  -2.155  1.00  0.00     0.050 A 
ATOM     18  C   UNL     1       5.638  -1.101  -3.273  1.00  0.00     0.027 A 
ATOM     19  C   UNL     1       5.472   0.690  -1.655  1.00  0.00     0.027 A 
ATOM     20  C   UNL     1       6.725  -0.457  -3.874  1.00  0.00     0.002 A 
ATOM     21  C   UNL     1       6.554   1.337  -2.260  1.00  0.00     0.002 A 
ATOM     22  C   UNL     1       7.184   0.761  -3.364  1.00  0.00     0.000 A 
ENDBRANCH  15  17
ENDBRANCH  12  15
ENDBRANCH  10  12
ENDBRANCH   7  10
ENDBRANCH   1   2
BRANCH   1  23
ATOM     23  C   UNL     1      -1.743  -0.752   2.550  1.00  0.00     0.240 C 
ATOM     24  O   UNL     1      -1.472  -1.868   2.997  1.00  0.00    -0.273 OA
ATOM     25  N   UNL     1      -2.793  -0.523   1.685  1.00  0.00    -0.350 N 
ATOM     26  H   UNL     1      -2.915   0.407   1.275  1.00  0.00     0.163 HD
BRANCH  25  27
ATOM     27  C   UNL     1      -3.616  -1.608   1.212  1.00  0.00     0.162 C 
BRANCH  27  28
ATOM     28  C   UNL     1      -4.612  -1.073   0.234  1.00  0.00     0.025 A 
ATOM     29  C   UNL     1      -4.581  -1.150  -1.147  1.00  0.00     0.018 A 
ATOM     30  S   UNL     1      -6.017  -0.260   0.781  1.00  0.00    -0.135 S 
ATOM     31  C   UNL     1      -5.705  -0.513  -1.748  1.00  0.00     0.024 A 
ATOM     32  C   UNL     1      -6.566   0.034  -0.816  1.00  0.00     0.069 A 
BRANCH  32  33
ATOM     33  C   UNL     1      -7.792   0.780  -1.061  1.00  0.00     0.133 C 
ATOM     34  N   UNL     1      -8.610   1.069  -0.092  1.00  0.00    -0.284 NA
ATOM     35  N   UNL     1      -8.167   1.244  -2.292  1.00  0.00    -0.383 N 
ATOM     36  H   UNL     1      -8.250   0.664   0.784  1.00  0.00     0.189 HD
ATOM     37  H   UNL     1      -7.410   1.626  -2.847  1.00  0.00     0.158 HD
ATOM     38  H   UNL     1      -8.930   1.905  -2.181  1.00  0.00     0.158 HD
ENDBRANCH  32  33
ENDBRANCH  27  28
ENDBRANCH  25  27
ENDBRANCH   1  23
TORSDOF 9
