REMARK SMILES N=C(N)NCSCC(NC(=O)CN(CC1(c2ccccc2)CC1)C(=O)CCc1ccccc1)B(O)O
REMARK SMILES IDX 9 1 10 2 11 3 8 5 7 6 6 7 5 8 4 9 1 10 2 11 3 12 34 17 35 18
REMARK SMILES IDX 36 20 12 22 13 23 14 24 15 25 22 26 23 27 16 28 17 29 21 30
REMARK SMILES IDX 18 31 20 32 19 33 24 34 25 35 26 36 27 37 28 38 29 39 33 40
REMARK SMILES IDX 30 41 32 42 31 43
REMARK H PARENT 9 4 1 13 3 14 3 15 4 16 35 19 36 21
ROOT
ATOM      1  N   UNL     1       0.969  -0.085  -0.844  1.00  0.00    -0.353 N 
ATOM      2  C   UNL     1      -0.017   0.694  -1.485  1.00  0.00     0.239 C 
ATOM      3  O   UNL     1       0.467   1.662  -2.207  1.00  0.00    -0.273 OA
ATOM      4  H   UNL     1       0.654  -0.869  -0.244  1.00  0.00     0.163 HD
ENDROOT
BRANCH   1   5
ATOM      5  C   UNL     1       2.381   0.181  -0.992  1.00  0.00     0.123 C 
BRANCH   5   6
ATOM      6  C   UNL     1       3.149   0.232   0.286  1.00  0.00     0.093 C 
BRANCH   6   7
ATOM      7  S   UNL     1       4.894   0.586  -0.160  1.00  0.00    -0.139 SA
BRANCH   7   8
ATOM      8  C   UNL     1       5.003   2.263  -0.881  1.00  0.00     0.186 C 
BRANCH   8   9
ATOM      9  N   UNL     1       4.661   3.212   0.157  1.00  0.00    -0.348 N 
ATOM     10  N   UNL     1       4.554   5.072  -1.245  1.00  0.00    -0.270 NA
ATOM     11  C   UNL     1       4.658   4.621  -0.039  1.00  0.00     0.186 C 
ATOM     12  N   UNL     1       4.770   5.485   1.087  1.00  0.00    -0.370 N 
ATOM     13  H   UNL     1       4.470   4.460  -2.090  1.00  0.00     0.191 HD
ATOM     14  H   UNL     1       5.019   6.490   0.992  1.00  0.00     0.159 HD
ATOM     15  H   UNL     1       4.598   5.110   2.040  1.00  0.00     0.159 HD
ATOM     16  H   UNL     1       4.390   2.898   1.133  1.00  0.00     0.164 HD
ENDBRANCH   8   9
ENDBRANCH   7   8
ENDBRANCH   6   7
ENDBRANCH   5   6
BRANCH   5  17
ATOM     17  B   UNL     1       3.078  -0.908  -1.919  1.00  0.00     0.476 B 
BRANCH  17  18
ATOM     18  O   UNL     1       3.196  -0.632  -3.338  1.00  0.00    -0.426 OA
ATOM     19  H   UNL     1       3.873   0.090  -3.497  1.00  0.00     0.189 HD
ENDBRANCH  17  18
BRANCH  17  20
ATOM     20  O   UNL     1       3.161  -2.320  -1.477  1.00  0.00    -0.426 OA
ATOM     21  H   UNL     1       4.042  -2.715  -1.767  1.00  0.00     0.189 HD
ENDBRANCH  17  20
ENDBRANCH   5  17
ENDBRANCH   1   5
BRANCH   2  22
ATOM     22  C   UNL     1      -1.450   0.584  -1.456  1.00  0.00     0.219 C 
BRANCH  22  23
ATOM     23  N   UNL     1      -2.120  -0.458  -0.752  1.00  0.00    -0.332 N 
BRANCH  23  24
ATOM     24  C   UNL     1      -2.756  -1.625  -1.275  1.00  0.00     0.131 C 
BRANCH  24  25
ATOM     25  C   UNL     1      -2.102  -2.935  -1.321  1.00  0.00     0.013 C 
ATOM     26  C   UNL     1      -0.653  -3.014  -1.705  1.00  0.00     0.014 C 
ATOM     27  C   UNL     1      -1.004  -3.250  -0.306  1.00  0.00     0.014 C 
BRANCH  25  28
ATOM     28  C   UNL     1      -2.892  -4.112  -1.845  1.00  0.00    -0.040 A 
ATOM     29  C   UNL     1      -2.279  -5.358  -1.849  1.00  0.00     0.004 A 
ATOM     30  C   UNL     1      -4.167  -3.980  -2.308  1.00  0.00     0.004 A 
ATOM     31  C   UNL     1      -3.033  -6.403  -2.339  1.00  0.00     0.000 A 
ATOM     32  C   UNL     1      -4.922  -5.048  -2.803  1.00  0.00     0.000 A 
ATOM     33  C   UNL     1      -4.304  -6.297  -2.807  1.00  0.00     0.000 A 
ENDBRANCH  25  28
ENDBRANCH  24  25
ENDBRANCH  23  24
BRANCH  23  34
ATOM     34  C   UNL     1      -2.303  -0.240   0.677  1.00  0.00     0.223 C 
ATOM     35  O   UNL     1      -2.887  -1.080   1.401  1.00  0.00    -0.275 OA
BRANCH  34  36
ATOM     36  C   UNL     1      -1.802   0.996   1.338  1.00  0.00     0.105 C 
BRANCH  36  37
ATOM     37  C   UNL     1      -2.017   0.942   2.823  1.00  0.00     0.045 C 
BRANCH  37  38
ATOM     38  C   UNL     1      -1.540   2.127   3.559  1.00  0.00    -0.048 A 
ATOM     39  C   UNL     1      -0.220   2.131   4.027  1.00  0.00     0.004 A 
ATOM     40  C   UNL     1      -2.297   3.241   3.835  1.00  0.00     0.004 A 
ATOM     41  C   UNL     1       0.254   3.211   4.722  1.00  0.00     0.000 A 
ATOM     42  C   UNL     1      -1.811   4.325   4.537  1.00  0.00     0.000 A 
ATOM     43  C   UNL     1      -0.500   4.315   4.995  1.00  0.00     0.000 A 
ENDBRANCH  37  38
ENDBRANCH  36  37
ENDBRANCH  34  36
ENDBRANCH  23  34
ENDBRANCH  22  23
ENDBRANCH   2  22
TORSDOF 17
