REMARK SMILES Cn1c(=O)c2c(nc(SCC(N)=O)n2Cc2ccccc2F)n(C)c1=O
REMARK SMILES IDX 1 1 2 2 3 3 4 4 5 5 6 6 7 7 8 8 14 9 23 10 24 11 25 12 26 13
REMARK SMILES IDX 15 14 16 15 17 16 21 17 18 18 20 19 19 20 22 21 9 22 10 23
REMARK SMILES IDX 11 24 12 25 13 26
REMARK H PARENT 12 27 12 28
ROOT
ATOM      1  C   UNL     1      -2.955   3.751   0.190  1.00  0.00     0.159 C 
ATOM      2  N   UNL     1      -1.755   2.960  -0.131  1.00  0.00    -0.261 N 
ATOM      3  C   UNL     1      -1.540   1.757   0.503  1.00  0.00     0.282 A 
ATOM      4  O   UNL     1      -2.345   1.334   1.376  1.00  0.00    -0.267 OA
ATOM      5  C   UNL     1      -0.414   1.014   0.149  1.00  0.00     0.153 A 
ATOM      6  C   UNL     1       0.429   1.478  -0.807  1.00  0.00     0.169 A 
ATOM      7  N   UNL     1       1.431   0.607  -1.029  1.00  0.00    -0.204 NA
ATOM      8  C   UNL     1       1.156  -0.395  -0.158  1.00  0.00     0.171 A 
ATOM      9  N   UNL     1       0.035  -0.183   0.583  1.00  0.00    -0.308 N 
ATOM     10  N   UNL     1       0.228   2.660  -1.449  1.00  0.00    -0.279 N 
ATOM     11  C   UNL     1       1.137   3.099  -2.516  1.00  0.00     0.157 C 
ATOM     12  C   UNL     1      -0.893   3.391  -1.124  1.00  0.00     0.332 A 
ATOM     13  O   UNL     1      -1.138   4.463  -1.746  1.00  0.00    -0.247 OA
ENDROOT
BRANCH   9  14
ATOM     14  C   UNL     1      -0.556  -1.110   1.555  1.00  0.00     0.163 C 
BRANCH  14  15
ATOM     15  C   UNL     1      -1.297  -2.219   0.847  1.00  0.00     0.008 A 
ATOM     16  C   UNL     1      -2.419  -1.916   0.057  1.00  0.00     0.008 A 
ATOM     17  C   UNL     1      -0.882  -3.561   0.962  1.00  0.00     0.128 A 
ATOM     18  C   UNL     1      -3.110  -2.931  -0.611  1.00  0.00     0.001 A 
ATOM     19  C   UNL     1      -1.577  -4.572   0.290  1.00  0.00     0.039 A 
ATOM     20  C   UNL     1      -2.689  -4.258  -0.496  1.00  0.00     0.003 A 
ATOM     21  F   UNL     1       0.192  -3.897   1.722  1.00  0.00    -0.207 F 
ENDBRANCH  14  15
ENDBRANCH   9  14
BRANCH   8  22
ATOM     22  S   UNL     1       2.189  -1.859  -0.032  1.00  0.00    -0.078 SA
BRANCH  22  23
ATOM     23  C   UNL     1       3.274  -1.163   1.260  1.00  0.00     0.177 C 
BRANCH  23  24
ATOM     24  C   UNL     1       4.195  -0.139   0.675  1.00  0.00     0.227 C 
ATOM     25  N   UNL     1       5.281  -0.538  -0.161  1.00  0.00    -0.369 N 
ATOM     26  O   UNL     1       3.998   1.085   0.901  1.00  0.00    -0.274 OA
ATOM     27  H   UNL     1       5.453  -1.548  -0.362  1.00  0.00     0.159 HD
ATOM     28  H   UNL     1       5.915   0.177  -0.580  1.00  0.00     0.159 HD
ENDBRANCH  23  24
ENDBRANCH  22  23
ENDBRANCH   8  22
TORSDOF 5
