REMARK SMILES O=C1C(=O)N(Cc2ccccc2)c2ccc(Cl)cc21
REMARK SMILES IDX 1 1 2 2 3 3 4 4 5 5 13 6 14 7 15 8 16 9 17 10 18 11 19 12
REMARK SMILES IDX 6 13 7 14 8 15 12 16 9 17 11 18 10 19
REMARK H PARENT
ROOT
ATOM      1  O   UNL     1       2.226  -3.281   0.758  1.00  0.00    -0.283 OA
ATOM      2  C   UNL     1       1.815  -2.092   0.792  1.00  0.00     0.252 C 
ATOM      3  C   UNL     1       0.765  -1.548   1.640  1.00  0.00     0.299 C 
ATOM      4  O   UNL     1       0.085  -2.204   2.473  1.00  0.00    -0.265 OA
ATOM      5  N   UNL     1       0.598  -0.151   1.383  1.00  0.00    -0.300 N 
ATOM      6  C   UNL     1       1.546   0.140   0.346  1.00  0.00     0.056 A 
ATOM      7  C   UNL     1       1.774   1.374  -0.270  1.00  0.00     0.029 A 
ATOM      8  C   UNL     1       2.757   1.449  -1.272  1.00  0.00     0.023 A 
ATOM      9  C   UNL     1       3.495   0.303  -1.640  1.00  0.00     0.041 A 
ATOM     10  Cl  UNL     1       4.717   0.417  -2.893  1.00  0.00    -0.084 Cl
ATOM     11  C   UNL     1       3.257  -0.928  -1.006  1.00  0.00     0.035 A 
ATOM     12  C   UNL     1       2.279  -0.978  -0.015  1.00  0.00     0.053 A 
ENDROOT
BRANCH   5  13
ATOM     13  C   UNL     1      -0.566   0.651   1.756  1.00  0.00     0.161 C 
BRANCH  13  14
ATOM     14  C   UNL     1      -1.684   0.439   0.770  1.00  0.00    -0.028 A 
ATOM     15  C   UNL     1      -1.837   1.300  -0.330  1.00  0.00     0.005 A 
ATOM     16  C   UNL     1      -2.554  -0.655   0.913  1.00  0.00     0.005 A 
ATOM     17  C   UNL     1      -2.853   1.075  -1.264  1.00  0.00     0.000 A 
ATOM     18  C   UNL     1      -3.569  -0.876  -0.024  1.00  0.00     0.000 A 
ATOM     19  C   UNL     1      -3.718  -0.011  -1.111  1.00  0.00     0.000 A 
ENDBRANCH  13  14
ENDBRANCH   5  13
TORSDOF 2
