REMARK SMILES O=S(=O)(c1ccc(Cl)cc1)n1c(Cc2ccccc2)nc2ccccc21
REMARK SMILES IDX 11 1 12 2 20 3 21 4 22 5 23 6 24 7 25 8 26 9 2 10 1 11 3 12
REMARK SMILES IDX 4 13 5 14 10 15 6 16 9 17 7 18 8 19 13 20 14 21 15 22 19 23
REMARK SMILES IDX 16 24 18 25 17 26
REMARK H PARENT
ROOT
ATOM      1  N   UNL     1       0.200   1.223  -1.294  1.00  0.00    -0.219 N 
ATOM      2  C   UNL     1      -1.142   1.067  -1.477  1.00  0.00     0.129 A 
ATOM      3  N   UNL     1      -1.853   2.196  -1.221  1.00  0.00    -0.232 NA
ATOM      4  C   UNL     1      -0.907   3.080  -0.862  1.00  0.00     0.090 A 
ATOM      5  C   UNL     1      -1.097   4.399  -0.457  1.00  0.00     0.030 A 
ATOM      6  C   UNL     1       0.037   5.134  -0.068  1.00  0.00     0.002 A 
ATOM      7  C   UNL     1       1.315   4.535  -0.080  1.00  0.00     0.002 A 
ATOM      8  C   UNL     1       1.473   3.198  -0.490  1.00  0.00     0.030 A 
ATOM      9  C   UNL     1       0.329   2.501  -0.892  1.00  0.00     0.084 A 
ENDROOT
BRANCH   1  10
ATOM     10  S   UNL     1       1.454   0.021  -1.444  1.00  0.00     0.269 S 
ATOM     11  O   UNL     1       2.770   0.676  -1.753  1.00  0.00    -0.201 OA
ATOM     12  O   UNL     1       1.118  -0.907  -2.577  1.00  0.00    -0.201 OA
BRANCH  10  13
ATOM     13  C   UNL     1       1.593  -0.895   0.052  1.00  0.00     0.088 A 
ATOM     14  C   UNL     1       1.178  -0.334   1.269  1.00  0.00     0.024 A 
ATOM     15  C   UNL     1       2.105  -2.200   0.031  1.00  0.00     0.024 A 
ATOM     16  C   UNL     1       1.256  -1.080   2.449  1.00  0.00     0.022 A 
ATOM     17  C   UNL     1       2.183  -2.944   1.212  1.00  0.00     0.022 A 
ATOM     18  C   UNL     1       1.754  -2.387   2.421  1.00  0.00     0.041 A 
ATOM     19  Cl  UNL     1       1.833  -3.328   3.898  1.00  0.00    -0.084 Cl
ENDBRANCH  10  13
ENDBRANCH   1  10
BRANCH   2  20
ATOM     20  C   UNL     1      -1.822  -0.227  -1.833  1.00  0.00     0.112 C 
BRANCH  20  21
ATOM     21  C   UNL     1      -1.754  -1.219  -0.699  1.00  0.00    -0.040 A 
ATOM     22  C   UNL     1      -2.232  -0.875   0.579  1.00  0.00     0.004 A 
ATOM     23  C   UNL     1      -1.250  -2.513  -0.915  1.00  0.00     0.004 A 
ATOM     24  C   UNL     1      -2.170  -1.798   1.628  1.00  0.00     0.000 A 
ATOM     25  C   UNL     1      -1.192  -3.433   0.136  1.00  0.00     0.000 A 
ATOM     26  C   UNL     1      -1.647  -3.074   1.407  1.00  0.00     0.000 A 
ENDBRANCH  20  21
ENDBRANCH   2  20
TORSDOF 4
