REMARK SMILES O=S(=O)(c1ccc(Cl)cc1)n1cnc2ccccc21
REMARK SMILES IDX 4 1 5 2 6 3 7 4 8 5 9 6 10 7 2 8 1 9 3 10 11 11 12 12 19 13
REMARK SMILES IDX 13 14 18 15 14 16 17 17 15 18 16 19
REMARK H PARENT
ROOT
ATOM      1  C   UNL     1      -1.629  -0.979  -0.135  1.00  0.00     0.088 A 
ATOM      2  C   UNL     1      -2.514  -1.142  -1.211  1.00  0.00     0.024 A 
ATOM      3  C   UNL     1      -3.585  -0.259  -1.379  1.00  0.00     0.022 A 
ATOM      4  C   UNL     1      -3.779   0.789  -0.473  1.00  0.00     0.041 A 
ATOM      5  Cl  UNL     1      -5.122   1.897  -0.686  1.00  0.00    -0.084 Cl
ATOM      6  C   UNL     1      -2.901   0.952   0.604  1.00  0.00     0.022 A 
ATOM      7  C   UNL     1      -1.830   0.069   0.774  1.00  0.00     0.024 A 
ENDROOT
BRANCH   1   8
ATOM      8  S   UNL     1      -0.272  -2.079   0.079  1.00  0.00     0.269 S 
ATOM      9  O   UNL     1      -0.654  -3.140   1.071  1.00  0.00    -0.201 OA
ATOM     10  O   UNL     1       0.087  -2.732  -1.227  1.00  0.00    -0.201 OA
BRANCH   8  11
ATOM     11  N   UNL     1       1.103  -1.198   0.659  1.00  0.00    -0.222 N 
ATOM     12  C   UNL     1       1.782  -1.407   1.812  1.00  0.00     0.216 A 
ATOM     13  C   UNL     1       1.712  -0.149   0.089  1.00  0.00     0.084 A 
ATOM     14  N   UNL     1       2.803  -0.529   1.996  1.00  0.00    -0.236 NA
ATOM     15  C   UNL     1       1.418   0.498  -1.111  1.00  0.00     0.030 A 
ATOM     16  C   UNL     1       2.735   0.250   0.898  1.00  0.00     0.090 A 
ATOM     17  C   UNL     1       2.224   1.594  -1.472  1.00  0.00     0.002 A 
ATOM     18  C   UNL     1       3.551   1.330   0.570  1.00  0.00     0.030 A 
ATOM     19  C   UNL     1       3.286   2.009  -0.635  1.00  0.00     0.002 A 
ENDBRANCH   8  11
ENDBRANCH   1   8
TORSDOF 2
