REMARK SMILES COc1cccc(CN2CCN(CN3C(=O)C(=O)c4ccccc43)CC2)c1
REMARK SMILES IDX 8 1 7 2 3 3 4 4 27 5 5 6 6 7 2 8 1 9 9 10 10 11 26 12 11 13
REMARK SMILES IDX 25 14 12 15 13 16 14 17 15 18 24 19 16 20 17 21 23 22 19 23
REMARK SMILES IDX 18 24 22 25 20 26 21 27
REMARK H PARENT
ROOT
ATOM      1  C   UNL     1       1.630   1.593   0.072  1.00  0.00     0.120 C 
ENDROOT
BRANCH   1   2
ATOM      2  C   UNL     1       2.974   1.182   0.617  1.00  0.00    -0.030 A 
ATOM      3  C   UNL     1       5.298   0.541   0.254  1.00  0.00     0.119 A 
ATOM      4  C   UNL     1       5.454   0.361   1.641  1.00  0.00     0.046 A 
ATOM      5  C   UNL     1       4.056   0.950  -0.248  1.00  0.00     0.051 A 
ATOM      6  C   UNL     1       4.378   0.584   2.505  1.00  0.00     0.004 A 
ATOM      7  C   UNL     1       3.142   0.990   1.997  1.00  0.00     0.005 A 
BRANCH   3   8
ATOM      8  O   UNL     1       6.344   0.325  -0.655  1.00  0.00    -0.497 OA
ATOM      9  C   UNL     1       7.655  -0.093  -0.287  1.00  0.00     0.278 C 
ENDBRANCH   3   8
ENDBRANCH   1   2
BRANCH   1  10
ATOM     10  N   UNL     1       0.655   0.487   0.182  1.00  0.00    -0.297 NA
ATOM     11  C   UNL     1       1.051  -0.671  -0.662  1.00  0.00     0.100 C 
ATOM     12  C   UNL     1      -0.732   0.956  -0.074  1.00  0.00     0.100 C 
ATOM     13  C   UNL     1      -0.156  -1.544  -1.018  1.00  0.00     0.102 C 
ATOM     14  C   UNL     1      -1.192   0.661  -1.511  1.00  0.00     0.102 C 
ATOM     15  N   UNL     1      -1.128  -0.784  -1.833  1.00  0.00    -0.283 NA
BRANCH  15  16
ATOM     16  C   UNL     1      -2.445  -1.449  -1.950  1.00  0.00     0.213 C 
BRANCH  16  17
ATOM     17  N   UNL     1      -3.220  -1.393  -0.702  1.00  0.00    -0.291 N 
ATOM     18  C   UNL     1      -3.206  -2.355   0.359  1.00  0.00     0.300 C 
ATOM     19  C   UNL     1      -4.266  -0.475  -0.344  1.00  0.00     0.057 A 
ATOM     20  O   UNL     1      -2.524  -3.414   0.353  1.00  0.00    -0.265 OA
ATOM     21  C   UNL     1      -4.161  -1.978   1.387  1.00  0.00     0.252 C 
ATOM     22  C   UNL     1      -4.798   0.562  -1.119  1.00  0.00     0.027 A 
ATOM     23  C   UNL     1      -4.815  -0.779   0.892  1.00  0.00     0.052 A 
ATOM     24  O   UNL     1      -4.404  -2.590   2.461  1.00  0.00    -0.283 OA
ATOM     25  C   UNL     1      -5.857   1.319  -0.590  1.00  0.00     0.002 A 
ATOM     26  C   UNL     1      -5.873  -0.050   1.431  1.00  0.00     0.014 A 
ATOM     27  C   UNL     1      -6.387   1.020   0.681  1.00  0.00     0.001 A 
ENDBRANCH  16  17
ENDBRANCH  15  16
ENDBRANCH   1  10
TORSDOF 5
