REMARK SMILES O=C1C(=O)N(CCc2ccccc2)c2ccc(Br)cc21
REMARK SMILES IDX 6 1 5 2 1 3 2 4 3 5 20 6 4 7 19 8 14 9 17 10 15 11 16 12
REMARK SMILES IDX 18 13 7 14 8 15 9 16 13 17 10 18 12 19 11 20
REMARK H PARENT
ROOT
ATOM      1  C   UNL     1       0.034  -2.094   1.384  1.00  0.00     0.131 C 
ENDROOT
BRANCH   1   2
ATOM      2  N   UNL     1      -1.069  -1.578   0.570  1.00  0.00    -0.304 N 
ATOM      3  O   UNL     1      -3.071  -1.592  -2.402  1.00  0.00    -0.283 OA
ATOM      4  C   UNL     1      -2.420  -1.331  -1.356  1.00  0.00     0.252 C 
ATOM      5  C   UNL     1      -1.683  -2.268  -0.523  1.00  0.00     0.299 C 
ATOM      6  C   UNL     1      -2.220  -0.027  -0.747  1.00  0.00     0.053 A 
ATOM      7  O   UNL     1      -1.567  -3.503  -0.737  1.00  0.00    -0.265 OA
ATOM      8  C   UNL     1      -2.645   1.234  -1.160  1.00  0.00     0.030 A 
ATOM      9  C   UNL     1      -1.428  -0.202   0.375  1.00  0.00     0.056 A 
ATOM     10  C   UNL     1      -2.252   2.347  -0.397  1.00  0.00     0.018 A 
ATOM     11  C   UNL     1      -1.031   0.895   1.146  1.00  0.00     0.028 A 
ATOM     12  C   UNL     1      -1.450   2.176   0.751  1.00  0.00     0.018 A 
ATOM     13  Br  UNL     1      -2.799   4.099  -0.923  1.00  0.00    -0.051 Br
ENDBRANCH   1   2
BRANCH   1  14
ATOM     14  C   UNL     1       1.350  -2.117   0.595  1.00  0.00     0.057 C 
BRANCH  14  15
ATOM     15  C   UNL     1       1.776  -0.735   0.172  1.00  0.00    -0.046 A 
ATOM     16  C   UNL     1       1.490  -0.268  -1.123  1.00  0.00     0.004 A 
ATOM     17  C   UNL     1       2.398   0.125   1.092  1.00  0.00     0.004 A 
ATOM     18  C   UNL     1       1.819   1.041  -1.488  1.00  0.00     0.000 A 
ATOM     19  C   UNL     1       2.729   1.432   0.721  1.00  0.00     0.000 A 
ATOM     20  C   UNL     1       2.438   1.890  -0.567  1.00  0.00     0.000 A 
ENDBRANCH  14  15
ENDBRANCH   1  14
TORSDOF 3
