REMARK SMILES Cc1nc2ccccc2n1S(=O)(=O)c1ccc(Cl)cc1
REMARK SMILES IDX 11 1 12 2 13 3 10 4 2 5 3 6 4 7 9 8 5 9 8 10 6 11 7 12 1 13
REMARK SMILES IDX 14 14 15 15 20 16 16 17 19 18 17 19 18 20
REMARK H PARENT
ROOT
ATOM      1  S   UNL     1       0.358   1.359   1.219  1.00  0.00     0.269 S 
ATOM      2  O   UNL     1      -0.024   1.045   2.639  1.00  0.00    -0.201 OA
ATOM      3  O   UNL     1       0.720   2.815   1.128  1.00  0.00    -0.201 OA
ENDROOT
BRANCH   1   4
ATOM      4  N   UNL     1      -0.989   0.984   0.183  1.00  0.00    -0.219 N 
ATOM      5  C   UNL     1      -1.611   1.770  -0.737  1.00  0.00     0.121 A 
ATOM      6  N   UNL     1      -2.609   1.130  -1.402  1.00  0.00    -0.232 NA
ATOM      7  C   UNL     1      -2.590  -0.104  -0.865  1.00  0.00     0.090 A 
ATOM      8  C   UNL     1      -1.616  -0.198   0.085  1.00  0.00     0.084 A 
ATOM      9  C   UNL     1      -3.403  -1.186  -1.195  1.00  0.00     0.030 A 
ATOM     10  C   UNL     1      -1.371  -1.386   0.777  1.00  0.00     0.030 A 
ATOM     11  C   UNL     1      -3.189  -2.398  -0.513  1.00  0.00     0.002 A 
ATOM     12  C   UNL     1      -2.176  -2.498   0.468  1.00  0.00     0.002 A 
ATOM     13  C   UNL     1      -1.246   3.190  -1.026  1.00  0.00     0.089 C 
ENDBRANCH   1   4
BRANCH   1  14
ATOM     14  C   UNL     1       1.745   0.394   0.730  1.00  0.00     0.088 A 
ATOM     15  C   UNL     1       2.594  -0.173   1.691  1.00  0.00     0.024 A 
ATOM     16  C   UNL     1       2.005   0.188  -0.632  1.00  0.00     0.024 A 
ATOM     17  C   UNL     1       3.690  -0.945   1.292  1.00  0.00     0.022 A 
ATOM     18  C   UNL     1       3.100  -0.585  -1.029  1.00  0.00     0.022 A 
ATOM     19  C   UNL     1       3.943  -1.153  -0.068  1.00  0.00     0.041 A 
ATOM     20  Cl  UNL     1       5.317  -2.123  -0.567  1.00  0.00    -0.084 Cl
ENDBRANCH   1  14
TORSDOF 2
