REMARK SMILES Cc1ccc(S(=O)(=O)n2c(C)nc3ccccc32)cc1
REMARK SMILES IDX 6 1 7 2 8 3 5 4 2 5 3 6 20 7 4 8 19 9 1 10 9 11 10 12 18 13
REMARK SMILES IDX 12 14 17 15 13 16 16 17 14 18 15 19 11 20
REMARK H PARENT
ROOT
ATOM      1  S   UNL     1      -0.228  -0.911   1.775  1.00  0.00     0.269 S 
ATOM      2  O   UNL     1       0.223  -2.228   2.341  1.00  0.00    -0.201 OA
ATOM      3  O   UNL     1      -0.856  -0.109   2.881  1.00  0.00    -0.201 OA
ENDROOT
BRANCH   1   4
ATOM      4  C   UNL     1       1.164  -0.066   1.109  1.00  0.00     0.088 A 
ATOM      5  C   UNL     1       3.357   1.286  -0.014  1.00  0.00    -0.051 A 
ATOM      6  C   UNL     1       2.946   0.049  -0.534  1.00  0.00     0.005 A 
ATOM      7  C   UNL     1       2.678   1.831   1.087  1.00  0.00     0.005 A 
ATOM      8  C   UNL     1       1.850  -0.618   0.019  1.00  0.00     0.022 A 
ATOM      9  C   UNL     1       1.584   1.160   1.643  1.00  0.00     0.022 A 
ATOM     10  C   UNL     1       4.555   1.988  -0.583  1.00  0.00     0.044 C 
ENDBRANCH   1   4
BRANCH   1  11
ATOM     11  N   UNL     1      -1.399  -1.142   0.510  1.00  0.00    -0.219 N 
ATOM     12  C   UNL     1      -1.784  -2.293  -0.106  1.00  0.00     0.121 A 
ATOM     13  C   UNL     1      -2.094  -0.183  -0.121  1.00  0.00     0.084 A 
ATOM     14  N   UNL     1      -2.700  -2.095  -1.091  1.00  0.00    -0.232 NA
ATOM     15  C   UNL     1      -2.073   1.199   0.081  1.00  0.00     0.030 A 
ATOM     16  C   UNL     1      -2.876  -0.761  -1.078  1.00  0.00     0.090 A 
ATOM     17  C   UNL     1      -2.904   1.990  -0.735  1.00  0.00     0.002 A 
ATOM     18  C   UNL     1      -3.708  -0.007  -1.902  1.00  0.00     0.030 A 
ATOM     19  C   UNL     1      -3.720   1.390  -1.721  1.00  0.00     0.002 A 
ATOM     20  C   UNL     1      -1.257  -3.652   0.229  1.00  0.00     0.089 C 
ENDBRANCH   1  11
TORSDOF 2
