REMARK SMILES O=C1C(=O)N(CN2CCN(Cc3ccc(F)cc3)CC2)c2ccccc21
REMARK SMILES IDX 7 1 8 2 9 3 10 4 19 5 20 6 6 7 5 8 1 9 2 10 3 11 26 12 4 13
REMARK SMILES IDX 25 14 21 15 24 16 22 17 23 18 11 19 12 20 13 21 18 22 14 23
REMARK SMILES IDX 17 24 15 25 16 26
REMARK H PARENT
ROOT
ATOM      1  N   UNL     1       0.558  -1.023   0.008  1.00  0.00    -0.283 NA
ATOM      2  C   UNL     1      -0.530  -2.004  -0.195  1.00  0.00     0.102 C 
ATOM      3  C   UNL     1      -1.758  -1.365  -0.873  1.00  0.00     0.100 C 
ATOM      4  N   UNL     1      -1.657   0.107  -0.839  1.00  0.00    -0.297 NA
ATOM      5  C   UNL     1      -0.476   0.548  -1.610  1.00  0.00     0.100 C 
ATOM      6  C   UNL     1       0.785  -0.256  -1.232  1.00  0.00     0.102 C 
ENDROOT
BRANCH   1   7
ATOM      7  C   UNL     1       1.788  -1.711   0.445  1.00  0.00     0.213 C 
BRANCH   7   8
ATOM      8  N   UNL     1       2.736  -0.749   1.005  1.00  0.00    -0.291 N 
ATOM      9  O   UNL     1       3.739   1.852   3.252  1.00  0.00    -0.283 OA
ATOM     10  C   UNL     1       3.591   1.017   2.322  1.00  0.00     0.252 C 
ATOM     11  C   UNL     1       2.555   0.002   2.208  1.00  0.00     0.300 C 
ATOM     12  C   UNL     1       4.410   0.874   1.129  1.00  0.00     0.052 A 
ATOM     13  O   UNL     1       1.618  -0.187   3.029  1.00  0.00    -0.265 OA
ATOM     14  C   UNL     1       5.520   1.602   0.706  1.00  0.00     0.014 A 
ATOM     15  C   UNL     1       3.882  -0.161   0.373  1.00  0.00     0.057 A 
ATOM     16  C   UNL     1       6.106   1.259  -0.523  1.00  0.00     0.001 A 
ATOM     17  C   UNL     1       4.451  -0.511  -0.855  1.00  0.00     0.027 A 
ATOM     18  C   UNL     1       5.574   0.208  -1.300  1.00  0.00     0.002 A 
ENDBRANCH   7   8
ENDBRANCH   1   7
BRANCH   4  19
ATOM     19  C   UNL     1      -2.881   0.739  -1.371  1.00  0.00     0.120 C 
BRANCH  19  20
ATOM     20  C   UNL     1      -3.988   0.682  -0.351  1.00  0.00    -0.034 A 
ATOM     21  C   UNL     1      -5.120  -0.122  -0.567  1.00  0.00     0.008 A 
ATOM     22  C   UNL     1      -3.883   1.417   0.841  1.00  0.00     0.008 A 
ATOM     23  C   UNL     1      -6.134  -0.182   0.394  1.00  0.00     0.039 A 
ATOM     24  C   UNL     1      -4.899   1.355   1.799  1.00  0.00     0.039 A 
ATOM     25  C   UNL     1      -6.024   0.556   1.577  1.00  0.00     0.123 A 
ATOM     26  F   UNL     1      -7.008   0.495   2.508  1.00  0.00    -0.207 F 
ENDBRANCH  19  20
ENDBRANCH   4  19
TORSDOF 4
