REMARK SMILES O=C1C(=O)N(CN2CCN(Cc3ccc4c(c3)OCO4)CC2)c2ccccc21
REMARK SMILES IDX 7 1 8 2 9 3 10 4 21 5 22 6 6 7 5 8 1 9 2 10 3 11 28 12 4 13
REMARK SMILES IDX 27 14 23 15 26 16 24 17 25 18 11 19 12 20 13 21 17 22 14 23
REMARK SMILES IDX 16 24 15 25 18 26 20 27 19 28
REMARK H PARENT
ROOT
ATOM      1  N   UNL     1      -1.479  -0.428  -0.480  1.00  0.00    -0.283 NA
ATOM      2  C   UNL     1      -0.306  -1.060  -1.136  1.00  0.00     0.102 C 
ATOM      3  C   UNL     1       0.983  -0.896  -0.315  1.00  0.00     0.100 C 
ATOM      4  N   UNL     1       1.318   0.530  -0.061  1.00  0.00    -0.297 NA
ATOM      5  C   UNL     1       0.140   1.427  -0.105  1.00  0.00     0.100 C 
ATOM      6  C   UNL     1      -1.118   0.712   0.398  1.00  0.00     0.102 C 
ENDROOT
BRANCH   1   7
ATOM      7  C   UNL     1      -2.298  -1.423   0.241  1.00  0.00     0.213 C 
BRANCH   7   8
ATOM      8  N   UNL     1      -3.550  -0.823   0.698  1.00  0.00    -0.291 N 
ATOM      9  O   UNL     1      -5.655   0.925   3.008  1.00  0.00    -0.283 OA
ATOM     10  C   UNL     1      -5.087   0.392   2.019  1.00  0.00     0.252 C 
ATOM     11  C   UNL     1      -3.862  -0.394   2.026  1.00  0.00     0.300 C 
ATOM     12  C   UNL     1      -5.507   0.448   0.627  1.00  0.00     0.052 A 
ATOM     13  O   UNL     1      -3.162  -0.652   3.040  1.00  0.00    -0.265 OA
ATOM     14  C   UNL     1      -6.592   1.092   0.035  1.00  0.00     0.014 A 
ATOM     15  C   UNL     1      -4.584  -0.264  -0.120  1.00  0.00     0.057 A 
ATOM     16  C   UNL     1      -6.733   0.999  -1.360  1.00  0.00     0.001 A 
ATOM     17  C   UNL     1      -4.706  -0.361  -1.508  1.00  0.00     0.027 A 
ATOM     18  C   UNL     1      -5.795   0.277  -2.128  1.00  0.00     0.002 A 
ENDBRANCH   7   8
ENDBRANCH   1   7
BRANCH   4  19
ATOM     19  C   UNL     1       2.380   1.024  -0.960  1.00  0.00     0.120 C 
BRANCH  19  20
ATOM     20  C   UNL     1       3.722   0.495  -0.528  1.00  0.00    -0.030 A 
ATOM     21  C   UNL     1       4.453  -0.388  -1.365  1.00  0.00     0.009 A 
ATOM     22  C   UNL     1       4.256   0.874   0.724  1.00  0.00     0.055 A 
ATOM     23  C   UNL     1       5.703  -0.888  -0.955  1.00  0.00     0.051 A 
ATOM     24  C   UNL     1       5.495   0.356   1.090  1.00  0.00     0.166 A 
ATOM     25  C   UNL     1       6.188  -0.488   0.286  1.00  0.00     0.165 A 
ATOM     26  O   UNL     1       6.211   0.578   2.251  1.00  0.00    -0.454 OA
ATOM     27  O   UNL     1       7.374  -0.840   0.900  1.00  0.00    -0.454 OA
ATOM     28  C   UNL     1       7.430  -0.175   2.170  1.00  0.00     0.468 C 
ENDBRANCH  19  20
ENDBRANCH   4  19
TORSDOF 4
