REMARK SMILES CNS(=O)(=O)c1ccc(Nc2ccc(F)cc2)c([N+](=O)[O-])c1
REMARK SMILES IDX 6 1 7 2 8 3 9 4 18 5 22 6 3 7 4 8 5 9 2 10 1 11 19 13 20 14
REMARK SMILES IDX 21 15 10 16 11 18 12 19 17 20 13 21 16 22 14 23 15 24
REMARK H PARENT 2 12 10 17
ROOT
ATOM      1  C   UNL     1       2.169  -0.490  -0.902  1.00  0.00     0.089 A 
ATOM      2  C   UNL     1       1.263   0.517  -1.247  1.00  0.00     0.024 A 
ATOM      3  C   UNL     1       0.047   0.627  -0.573  1.00  0.00     0.035 A 
ATOM      4  C   UNL     1      -0.291  -0.276   0.449  1.00  0.00     0.117 A 
ATOM      5  C   UNL     1       0.622  -1.298   0.805  1.00  0.00     0.294 A 
ATOM      6  C   UNL     1       1.851  -1.385   0.125  1.00  0.00     0.109 A 
ENDROOT
BRANCH   1   7
ATOM      7  S   UNL     1       3.720  -0.620  -1.729  1.00  0.00     0.240 S 
ATOM      8  O   UNL     1       3.986  -2.065  -2.046  1.00  0.00    -0.207 OA
ATOM      9  O   UNL     1       3.685   0.150  -3.021  1.00  0.00    -0.207 OA
BRANCH   7  10
ATOM     10  N   UNL     1       4.998  -0.013  -0.721  1.00  0.00    -0.214 NA
ATOM     11  C   UNL     1       4.765   1.399  -0.425  1.00  0.00     0.120 C 
ATOM     12  H   UNL     1       4.955  -0.540   0.182  1.00  0.00     0.141 HD
ENDBRANCH   7  10
ENDBRANCH   1   7
BRANCH   5  13
ATOM     13  N   UNL     1       0.304  -2.263   1.825  1.00  0.00     0.065 N 
ATOM     14  O   UNL     1       1.217  -2.855   2.437  1.00  0.00    -0.258 OA
ATOM     15  O   UNL     1      -0.997  -2.656   2.037  1.00  0.00    -0.258 OA
ENDBRANCH   5  13
BRANCH   4  16
ATOM     16  N   UNL     1      -1.506  -0.084   1.193  1.00  0.00    -0.350 N 
ATOM     17  H   UNL     1      -1.449  -0.130   2.236  1.00  0.00     0.167 HD
BRANCH  16  18
ATOM     18  C   UNL     1      -2.775   0.227   0.593  1.00  0.00     0.039 A 
ATOM     19  C   UNL     1      -3.065  -0.133  -0.737  1.00  0.00     0.029 A 
ATOM     20  C   UNL     1      -3.767   0.857   1.361  1.00  0.00     0.029 A 
ATOM     21  C   UNL     1      -4.314   0.163  -1.292  1.00  0.00     0.041 A 
ATOM     22  C   UNL     1      -5.015   1.151   0.803  1.00  0.00     0.041 A 
ATOM     23  C   UNL     1      -5.288   0.807  -0.523  1.00  0.00     0.123 A 
ATOM     24  F   UNL     1      -6.499   1.091  -1.062  1.00  0.00    -0.207 F 
ENDBRANCH  16  18
ENDBRANCH   4  16
TORSDOF 5
