REMARK SMILES O=C1C(=O)N(C/C=C/c2ccccc2)c2ccccc21
REMARK SMILES IDX 7 1 8 2 6 3 5 4 1 5 2 6 3 7 20 8 4 9 19 10 15 11 18 12 16 13
REMARK SMILES IDX 17 14 9 15 10 16 14 17 11 18 13 19 12 20
REMARK H PARENT
ROOT
ATOM      1  C   UNL     1       0.568  -0.233  -1.591  1.00  0.00    -0.005 C 
ATOM      2  C   UNL     1       1.395  -0.760  -0.680  1.00  0.00     0.005 C 
ENDROOT
BRANCH   1   3
ATOM      3  C   UNL     1      -0.584  -1.020  -2.143  1.00  0.00     0.153 C 
BRANCH   3   4
ATOM      4  N   UNL     1      -1.593  -1.241  -1.108  1.00  0.00    -0.301 N 
ATOM      5  O   UNL     1      -2.945  -2.887   1.771  1.00  0.00    -0.283 OA
ATOM      6  C   UNL     1      -2.612  -2.106   0.841  1.00  0.00     0.252 C 
ATOM      7  C   UNL     1      -1.706  -2.388  -0.262  1.00  0.00     0.299 C 
ATOM      8  C   UNL     1      -3.036  -0.728   0.656  1.00  0.00     0.052 A 
ATOM      9  O   UNL     1      -1.091  -3.472  -0.447  1.00  0.00    -0.265 OA
ATOM     10  C   UNL     1      -3.871   0.073   1.432  1.00  0.00     0.014 A 
ATOM     11  C   UNL     1      -2.416  -0.246  -0.485  1.00  0.00     0.056 A 
ATOM     12  C   UNL     1      -4.077   1.401   1.025  1.00  0.00     0.001 A 
ATOM     13  C   UNL     1      -2.604   1.074  -0.900  1.00  0.00     0.027 A 
ATOM     14  C   UNL     1      -3.447   1.900  -0.134  1.00  0.00     0.002 A 
ENDBRANCH   3   4
ENDBRANCH   1   3
BRANCH   2  15
ATOM     15  C   UNL     1       2.546  -0.032  -0.092  1.00  0.00    -0.026 A 
ATOM     16  C   UNL     1       3.574  -0.776   0.513  1.00  0.00     0.008 A 
ATOM     17  C   UNL     1       2.628   1.376  -0.082  1.00  0.00     0.008 A 
ATOM     18  C   UNL     1       4.672  -0.131   1.091  1.00  0.00     0.001 A 
ATOM     19  C   UNL     1       3.728   2.015   0.499  1.00  0.00     0.001 A 
ATOM     20  C   UNL     1       4.751   1.263   1.081  1.00  0.00     0.000 A 
ENDBRANCH   2  15
TORSDOF 3
