REMARK SMILES O=C1C(=O)N(CCc2ccccc2)c2ccc(Cl)cc21
REMARK SMILES IDX 6 1 5 2 1 3 2 4 3 5 20 6 4 7 19 8 14 9 17 10 15 11 16 12
REMARK SMILES IDX 18 13 7 14 8 15 9 16 13 17 10 18 12 19 11 20
REMARK H PARENT
ROOT
ATOM      1  C   UNL     1       0.329  -0.374   1.032  1.00  0.00     0.131 C 
ENDROOT
BRANCH   1   2
ATOM      2  N   UNL     1      -1.054  -0.845   1.006  1.00  0.00    -0.304 N 
ATOM      3  O   UNL     1      -3.565  -3.365   0.583  1.00  0.00    -0.283 OA
ATOM      4  C   UNL     1      -2.870  -2.317   0.650  1.00  0.00     0.252 C 
ATOM      5  C   UNL     1      -1.477  -2.210   1.057  1.00  0.00     0.299 C 
ATOM      6  C   UNL     1      -3.282  -0.964   0.315  1.00  0.00     0.053 A 
ATOM      7  O   UNL     1      -0.732  -3.173   1.382  1.00  0.00    -0.265 OA
ATOM      8  C   UNL     1      -4.498  -0.486  -0.170  1.00  0.00     0.035 A 
ATOM      9  C   UNL     1      -2.197  -0.129   0.519  1.00  0.00     0.056 A 
ATOM     10  C   UNL     1      -4.604   0.888  -0.449  1.00  0.00     0.041 A 
ATOM     11  C   UNL     1      -2.282   1.237   0.240  1.00  0.00     0.028 A 
ATOM     12  C   UNL     1      -3.500   1.744  -0.246  1.00  0.00     0.023 A 
ATOM     13  Cl  UNL     1      -6.113   1.539  -1.060  1.00  0.00    -0.084 Cl
ENDBRANCH   1   2
BRANCH   1  14
ATOM     14  C   UNL     1       0.933  -0.426  -0.373  1.00  0.00     0.057 C 
BRANCH  14  15
ATOM     15  C   UNL     1       2.351   0.078  -0.358  1.00  0.00    -0.046 A 
ATOM     16  C   UNL     1       2.618   1.447  -0.526  1.00  0.00     0.004 A 
ATOM     17  C   UNL     1       3.415  -0.808  -0.120  1.00  0.00     0.004 A 
ATOM     18  C   UNL     1       3.934   1.918  -0.479  1.00  0.00     0.000 A 
ATOM     19  C   UNL     1       4.730  -0.332  -0.074  1.00  0.00     0.000 A 
ATOM     20  C   UNL     1       4.989   1.029  -0.256  1.00  0.00     0.000 A 
ENDBRANCH  14  15
ENDBRANCH   1  14
TORSDOF 3
