REMARK SMILES O=S(=O)(c1ccc(F)c(F)c1)n1cnc2ccccc21
REMARK SMILES IDX 4 1 5 2 6 3 7 4 8 5 9 6 10 7 11 8 2 9 1 10 3 11 12 12 13 13
REMARK SMILES IDX 20 14 14 15 19 16 15 17 18 18 16 19 17 20
REMARK H PARENT
ROOT
ATOM      1  C   UNL     1       1.787  -0.408   0.675  1.00  0.00     0.091 A 
ATOM      2  C   UNL     1       2.748  -1.191   0.019  1.00  0.00     0.025 A 
ATOM      3  C   UNL     1       3.654  -0.596  -0.865  1.00  0.00     0.044 A 
ATOM      4  C   UNL     1       3.605   0.783  -1.096  1.00  0.00     0.158 A 
ATOM      5  F   UNL     1       4.485   1.356  -1.955  1.00  0.00    -0.204 F 
ATOM      6  C   UNL     1       2.652   1.568  -0.440  1.00  0.00     0.160 A 
ATOM      7  F   UNL     1       2.604   2.905  -0.661  1.00  0.00    -0.204 F 
ATOM      8  C   UNL     1       1.746   0.975   0.445  1.00  0.00     0.064 A 
ENDROOT
BRANCH   1   9
ATOM      9  S   UNL     1       0.637  -1.149   1.782  1.00  0.00     0.269 S 
ATOM     10  O   UNL     1       0.470  -2.609   1.466  1.00  0.00    -0.201 OA
ATOM     11  O   UNL     1       1.148  -1.005   3.188  1.00  0.00    -0.201 OA
BRANCH   9  12
ATOM     12  N   UNL     1      -0.902  -0.365   1.632  1.00  0.00    -0.222 N 
ATOM     13  C   UNL     1      -1.591   0.276   2.604  1.00  0.00     0.216 A 
ATOM     14  C   UNL     1      -1.656  -0.233   0.533  1.00  0.00     0.084 A 
ATOM     15  N   UNL     1      -2.760   0.811   2.164  1.00  0.00    -0.236 NA
ATOM     16  C   UNL     1      -1.420  -0.694  -0.763  1.00  0.00     0.030 A 
ATOM     17  C   UNL     1      -2.775   0.476   0.859  1.00  0.00     0.090 A 
ATOM     18  C   UNL     1      -2.388  -0.403  -1.742  1.00  0.00     0.002 A 
ATOM     19  C   UNL     1      -3.752   0.781  -0.087  1.00  0.00     0.030 A 
ATOM     20  C   UNL     1      -3.549   0.331  -1.406  1.00  0.00     0.002 A 
ENDBRANCH   9  12
ENDBRANCH   1   9
TORSDOF 2
