REMARK SMILES Cc1cc(S(=O)(=O)n2c(C)nc3ccccc32)ccc1Cl
REMARK SMILES IDX 5 1 6 2 7 3 4 4 2 5 3 6 20 7 19 8 18 9 1 10 21 11 8 12 9 13
REMARK SMILES IDX 17 14 11 15 16 16 12 17 15 18 13 19 14 20 10 21
REMARK H PARENT
ROOT
ATOM      1  S   UNL     1      -0.233   1.674   0.849  1.00  0.00     0.269 S 
ATOM      2  O   UNL     1      -0.303   1.480   2.338  1.00  0.00    -0.201 OA
ATOM      3  O   UNL     1      -0.250   3.149   0.563  1.00  0.00    -0.201 OA
ENDROOT
BRANCH   1   4
ATOM      4  C   UNL     1       1.247   0.981   0.199  1.00  0.00     0.088 A 
ATOM      5  C   UNL     1       3.334  -0.240   0.506  1.00  0.00    -0.031 A 
ATOM      6  C   UNL     1       2.168   0.337   1.037  1.00  0.00     0.027 A 
ATOM      7  C   UNL     1       3.571  -0.164  -0.882  1.00  0.00     0.044 A 
ATOM      8  C   UNL     1       2.648   0.480  -1.714  1.00  0.00     0.022 A 
ATOM      9  C   UNL     1       1.491   1.047  -1.177  1.00  0.00     0.024 A 
ATOM     10  C   UNL     1       4.309  -0.935   1.415  1.00  0.00     0.046 C 
ATOM     11  Cl  UNL     1       5.011  -0.869  -1.610  1.00  0.00    -0.084 Cl
ENDBRANCH   1   4
BRANCH   1  12
ATOM     12  N   UNL     1      -1.593   0.878   0.111  1.00  0.00    -0.219 N 
ATOM     13  C   UNL     1      -2.503   1.374  -0.772  1.00  0.00     0.121 A 
ATOM     14  C   UNL     1      -1.938  -0.411   0.251  1.00  0.00     0.084 A 
ATOM     15  N   UNL     1      -3.410   0.448  -1.183  1.00  0.00    -0.232 NA
ATOM     16  C   UNL     1      -1.329  -1.409   1.016  1.00  0.00     0.030 A 
ATOM     17  C   UNL     1      -3.032  -0.663  -0.524  1.00  0.00     0.090 A 
ATOM     18  C   UNL     1      -1.889  -2.699   0.968  1.00  0.00     0.002 A 
ATOM     19  C   UNL     1      -3.611  -1.928  -0.592  1.00  0.00     0.030 A 
ATOM     20  C   UNL     1      -3.026  -2.958   0.168  1.00  0.00     0.002 A 
ATOM     21  C   UNL     1      -2.521   2.783  -1.272  1.00  0.00     0.089 C 
ENDBRANCH   1  12
TORSDOF 2
