REMARK SMILES O=S(=O)(c1ccccc1)n1cnc2ccccc21
REMARK SMILES IDX 1 1 2 2 3 3 4 4 5 5 9 6 6 7 8 8 7 9 10 10 11 11 18 12 12 13
REMARK SMILES IDX 17 14 13 15 16 16 14 17 15 18
REMARK H PARENT
ROOT
ATOM      1  O   UNL     1       0.607   1.403  -2.949  1.00  0.00    -0.201 OA
ATOM      2  S   UNL     1       0.535   1.311  -1.451  1.00  0.00     0.269 S 
ATOM      3  O   UNL     1       1.106   2.566  -0.853  1.00  0.00    -0.201 OA
ENDROOT
BRANCH   2   4
ATOM      4  C   UNL     1      -1.145   1.108  -0.968  1.00  0.00     0.088 A 
ATOM      5  C   UNL     1      -1.728  -0.167  -0.982  1.00  0.00     0.022 A 
ATOM      6  C   UNL     1      -1.908   2.215  -0.570  1.00  0.00     0.022 A 
ATOM      7  C   UNL     1      -3.060  -0.334  -0.591  1.00  0.00     0.001 A 
ATOM      8  C   UNL     1      -3.241   2.045  -0.180  1.00  0.00     0.001 A 
ATOM      9  C   UNL     1      -3.816   0.771  -0.190  1.00  0.00     0.000 A 
ENDBRANCH   2   4
BRANCH   2  10
ATOM     10  N   UNL     1       1.465  -0.044  -0.900  1.00  0.00    -0.222 N 
ATOM     11  C   UNL     1       2.180  -0.908  -1.658  1.00  0.00     0.216 A 
ATOM     12  C   UNL     1       1.616  -0.486   0.356  1.00  0.00     0.084 A 
ATOM     13  N   UNL     1       2.782  -1.885  -0.929  1.00  0.00    -0.236 NA
ATOM     14  C   UNL     1       1.085   0.024   1.541  1.00  0.00     0.030 A 
ATOM     15  C   UNL     1       2.410  -1.594   0.333  1.00  0.00     0.090 A 
ATOM     16  C   UNL     1       1.400  -0.650   2.736  1.00  0.00     0.002 A 
ATOM     17  C   UNL     1       2.740  -2.284   1.498  1.00  0.00     0.030 A 
ATOM     18  C   UNL     1       2.224  -1.799   2.715  1.00  0.00     0.002 A 
ENDBRANCH   2  10
TORSDOF 2
