REMARK SMILES O=C1C(=O)N(CN2CCOCC2)c2ccccc21
REMARK SMILES IDX 6 1 5 2 1 3 2 4 3 5 18 6 4 7 17 8 13 9 16 10 14 11 15 12
REMARK SMILES IDX 7 13 8 14 12 15 9 16 11 17 10 18
REMARK H PARENT
ROOT
ATOM      1  C   UNL     1      -0.418   0.756   1.206  1.00  0.00     0.213 C 
ENDROOT
BRANCH   1   2
ATOM      2  N   UNL     1       0.746  -0.127   1.139  1.00  0.00    -0.291 N 
ATOM      3  O   UNL     1       2.503  -3.212   1.603  1.00  0.00    -0.283 OA
ATOM      4  C   UNL     1       2.067  -2.081   1.260  1.00  0.00     0.252 C 
ATOM      5  C   UNL     1       0.903  -1.389   1.792  1.00  0.00     0.300 C 
ATOM      6  C   UNL     1       2.609  -1.203   0.235  1.00  0.00     0.052 A 
ATOM      7  O   UNL     1       0.126  -1.833   2.679  1.00  0.00    -0.265 OA
ATOM      8  C   UNL     1       3.698  -1.373  -0.618  1.00  0.00     0.014 A 
ATOM      9  C   UNL     1       1.810  -0.073   0.183  1.00  0.00     0.057 A 
ATOM     10  C   UNL     1       3.974  -0.355  -1.547  1.00  0.00     0.001 A 
ATOM     11  C   UNL     1       2.066   0.944  -0.739  1.00  0.00     0.027 A 
ATOM     12  C   UNL     1       3.161   0.797  -1.608  1.00  0.00     0.002 A 
ENDBRANCH   1   2
BRANCH   1  13
ATOM     13  N   UNL     1      -1.230   0.627  -0.019  1.00  0.00    -0.281 NA
ATOM     14  C   UNL     1      -2.268   1.673  -0.058  1.00  0.00     0.115 C 
ATOM     15  C   UNL     1      -1.854  -0.711  -0.111  1.00  0.00     0.115 C 
ATOM     16  C   UNL     1      -3.091   1.557  -1.359  1.00  0.00     0.175 C 
ATOM     17  C   UNL     1      -2.937  -0.746  -1.207  1.00  0.00     0.175 C 
ATOM     18  O   UNL     1      -2.813   0.364  -2.072  1.00  0.00    -0.379 OA
ENDBRANCH   1  13
TORSDOF 2
