REMARK SMILES COc1cc(S(=O)(=O)n2c(C)nc3ccccc32)ccc1Cl
REMARK SMILES IDX 3 1 4 2 5 3 19 4 20 5 21 6 22 7 2 8 1 9 6 10 7 11 8 12 9 13
REMARK SMILES IDX 10 14 18 15 12 16 17 17 13 18 16 19 14 20 15 21 11 22
REMARK H PARENT
ROOT
ATOM      1  C   UNL     1       2.811  -0.651   0.736  1.00  0.00     0.138 A 
ATOM      2  C   UNL     1       1.546  -0.591   0.119  1.00  0.00     0.070 A 
ATOM      3  C   UNL     1       0.920  -1.759  -0.337  1.00  0.00     0.092 A 
ATOM      4  C   UNL     1       1.564  -2.993  -0.187  1.00  0.00     0.024 A 
ATOM      5  C   UNL     1       2.818  -3.060   0.422  1.00  0.00     0.026 A 
ATOM      6  C   UNL     1       3.441  -1.896   0.885  1.00  0.00     0.083 A 
ATOM      7  Cl  UNL     1       5.019  -2.012   1.649  1.00  0.00    -0.080 Cl
ENDROOT
BRANCH   1   8
ATOM      8  O   UNL     1       3.464   0.499   1.210  1.00  0.00    -0.495 OA
ATOM      9  C   UNL     1       2.935   1.818   1.126  1.00  0.00     0.278 C 
ENDBRANCH   1   8
BRANCH   3  10
ATOM     10  S   UNL     1      -0.661  -1.670  -1.106  1.00  0.00     0.269 S 
ATOM     11  O   UNL     1      -0.495  -1.393  -2.573  1.00  0.00    -0.201 OA
ATOM     12  O   UNL     1      -1.377  -2.983  -0.954  1.00  0.00    -0.201 OA
BRANCH  10  13
ATOM     13  N   UNL     1      -1.607  -0.415  -0.355  1.00  0.00    -0.219 N 
ATOM     14  C   UNL     1      -2.378  -0.513   0.761  1.00  0.00     0.121 A 
ATOM     15  C   UNL     1      -1.689   0.882  -0.699  1.00  0.00     0.084 A 
ATOM     16  N   UNL     1      -2.961   0.661   1.119  1.00  0.00    -0.232 NA
ATOM     17  C   UNL     1      -1.048   1.572  -1.732  1.00  0.00     0.030 A 
ATOM     18  C   UNL     1      -2.511   1.519   0.187  1.00  0.00     0.090 A 
ATOM     19  C   UNL     1      -1.296   2.952  -1.849  1.00  0.00     0.002 A 
ATOM     20  C   UNL     1      -2.775   2.884   0.098  1.00  0.00     0.030 A 
ATOM     21  C   UNL     1      -2.159   3.605  -0.941  1.00  0.00     0.002 A 
ATOM     22  C   UNL     1      -2.578  -1.774   1.539  1.00  0.00     0.089 C 
ENDBRANCH  10  13
ENDBRANCH   3  10
TORSDOF 3
