REMARK SMILES O=C1C(=O)N(Cc2ccccc2)c2ccc(Br)cc21
REMARK SMILES IDX 1 1 2 2 3 3 4 4 5 5 13 6 14 7 15 8 16 9 17 10 18 11 19 12
REMARK SMILES IDX 6 13 7 14 8 15 12 16 9 17 11 18 10 19
REMARK H PARENT
ROOT
ATOM      1  O   UNL     1       1.673   2.020  -3.042  1.00  0.00    -0.283 OA
ATOM      2  C   UNL     1       1.472   1.566  -1.885  1.00  0.00     0.252 C 
ATOM      3  C   UNL     1       0.577   2.104  -0.873  1.00  0.00     0.299 C 
ATOM      4  O   UNL     1      -0.158   3.118  -1.010  1.00  0.00    -0.265 OA
ATOM      5  N   UNL     1       0.634   1.304   0.312  1.00  0.00    -0.300 N 
ATOM      6  C   UNL     1       1.560   0.255  -0.007  1.00  0.00     0.056 A 
ATOM      7  C   UNL     1       1.960  -0.801   0.817  1.00  0.00     0.028 A 
ATOM      8  C   UNL     1       2.886  -1.730   0.312  1.00  0.00     0.018 A 
ATOM      9  C   UNL     1       3.398  -1.592  -0.996  1.00  0.00     0.018 A 
ATOM     10  Br  UNL     1       4.654  -2.866  -1.664  1.00  0.00    -0.051 Br
ATOM     11  C   UNL     1       2.990  -0.521  -1.810  1.00  0.00     0.030 A 
ATOM     12  C   UNL     1       2.073   0.387  -1.286  1.00  0.00     0.053 A 
ENDROOT
BRANCH   5  13
ATOM     13  C   UNL     1      -0.356   1.302   1.388  1.00  0.00     0.161 C 
BRANCH  13  14
ATOM     14  C   UNL     1      -1.545   0.463   1.001  1.00  0.00    -0.028 A 
ATOM     15  C   UNL     1      -1.610  -0.893   1.365  1.00  0.00     0.005 A 
ATOM     16  C   UNL     1      -2.578   1.017   0.227  1.00  0.00     0.005 A 
ATOM     17  C   UNL     1      -2.697  -1.677   0.969  1.00  0.00     0.000 A 
ATOM     18  C   UNL     1      -3.664   0.229  -0.166  1.00  0.00     0.000 A 
ATOM     19  C   UNL     1      -3.724  -1.117   0.205  1.00  0.00     0.000 A 
ENDBRANCH  13  14
ENDBRANCH   5  13
TORSDOF 2
