REMARK SMILES CC(=O)Nc1ccc(S(=O)(=O)n2c(C)nc3ccccc32)cc1
REMARK SMILES IDX 5 1 6 2 7 3 8 4 22 5 23 6 4 7 2 8 3 9 1 10 9 12 10 13 11 14
REMARK SMILES IDX 12 15 13 16 21 17 15 18 20 19 16 20 19 21 17 22 18 23 14 24
REMARK H PARENT 4 11
ROOT
ATOM      1  C   UNL     1       2.813   0.543   0.643  1.00  0.00     0.041 A 
ATOM      2  C   UNL     1       2.060   1.402   1.458  1.00  0.00     0.027 A 
ATOM      3  C   UNL     1       0.832   1.904   1.018  1.00  0.00     0.024 A 
ATOM      4  C   UNL     1       0.349   1.566  -0.253  1.00  0.00     0.088 A 
ATOM      5  C   UNL     1       1.102   0.720  -1.078  1.00  0.00     0.024 A 
ATOM      6  C   UNL     1       2.330   0.218  -0.638  1.00  0.00     0.027 A 
ENDROOT
BRANCH   1   7
ATOM      7  N   UNL     1       4.089   0.071   1.108  1.00  0.00    -0.326 N 
ATOM      8  C   UNL     1       4.657  -1.201   0.755  1.00  0.00     0.221 C 
ATOM      9  O   UNL     1       3.945  -2.100   0.230  1.00  0.00    -0.275 OA
ATOM     10  C   UNL     1       6.079  -1.502   1.097  1.00  0.00     0.114 C 
ATOM     11  H   UNL     1       4.610   0.659   1.796  1.00  0.00     0.169 HD
ENDBRANCH   1   7
BRANCH   4  12
ATOM     12  S   UNL     1      -1.198   2.182  -0.823  1.00  0.00     0.269 S 
ATOM     13  O   UNL     1      -1.758   3.184   0.148  1.00  0.00    -0.201 OA
ATOM     14  O   UNL     1      -0.995   2.872  -2.142  1.00  0.00    -0.201 OA
BRANCH  12  15
ATOM     15  N   UNL     1      -2.312   0.855  -0.979  1.00  0.00    -0.219 N 
ATOM     16  C   UNL     1      -2.798   0.274  -2.110  1.00  0.00     0.121 A 
ATOM     17  C   UNL     1      -2.861   0.145   0.019  1.00  0.00     0.084 A 
ATOM     18  N   UNL     1      -3.642  -0.763  -1.860  1.00  0.00    -0.232 NA
ATOM     19  C   UNL     1      -2.689   0.282   1.398  1.00  0.00     0.030 A 
ATOM     20  C   UNL     1      -3.661  -0.822  -0.515  1.00  0.00     0.090 A 
ATOM     21  C   UNL     1      -3.380  -0.615   2.234  1.00  0.00     0.002 A 
ATOM     22  C   UNL     1      -4.360  -1.724   0.284  1.00  0.00     0.030 A 
ATOM     23  C   UNL     1      -4.213  -1.613   1.679  1.00  0.00     0.002 A 
ATOM     24  C   UNL     1      -2.464   0.709  -3.500  1.00  0.00     0.089 C 
ENDBRANCH  12  15
ENDBRANCH   4  12
TORSDOF 3
