REMARK SMILES Nc1nc2ccccc2n1S(=O)(=O)c1ccc(Cl)cc1
REMARK SMILES IDX 2 1 3 2 4 3 5 4 6 5 7 6 8 7 9 8 10 9 1 10 11 13 12 14 13 15
REMARK SMILES IDX 14 16 15 17 20 18 16 19 19 20 17 21 18 22
REMARK H PARENT 1 11 1 12
ROOT
ATOM      1  C   UNL     1       1.383  -1.071  -1.322  1.00  0.00     0.215 A 
ATOM      2  N   UNL     1       2.509  -0.379  -1.635  1.00  0.00    -0.212 NA
ATOM      3  C   UNL     1       2.773   0.288  -0.497  1.00  0.00     0.092 A 
ATOM      4  C   UNL     1       3.817   1.181  -0.268  1.00  0.00     0.031 A 
ATOM      5  C   UNL     1       3.884   1.803   0.991  1.00  0.00     0.002 A 
ATOM      6  C   UNL     1       2.910   1.528   1.976  1.00  0.00     0.002 A 
ATOM      7  C   UNL     1       1.865   0.622   1.714  1.00  0.00     0.030 A 
ATOM      8  C   UNL     1       1.836   0.008   0.459  1.00  0.00     0.086 A 
ATOM      9  N   UNL     1       0.952  -0.871  -0.049  1.00  0.00    -0.201 N 
ENDROOT
BRANCH   1  10
ATOM     10  N   UNL     1       0.702  -1.883  -2.280  1.00  0.00    -0.368 N 
ATOM     11  H   UNL     1      -0.228  -2.308  -2.077  1.00  0.00     0.159 HD
ATOM     12  H   UNL     1       1.106  -2.008  -3.234  1.00  0.00     0.159 HD
ENDBRANCH   1  10
BRANCH   9  13
ATOM     13  S   UNL     1      -0.449  -1.564   0.718  1.00  0.00     0.271 S 
ATOM     14  O   UNL     1      -0.586  -3.004   0.306  1.00  0.00    -0.201 OA
ATOM     15  O   UNL     1      -0.309  -1.531   2.213  1.00  0.00    -0.201 OA
BRANCH  13  16
ATOM     16  C   UNL     1      -1.873  -0.647   0.244  1.00  0.00     0.088 A 
ATOM     17  C   UNL     1      -2.848  -1.214  -0.590  1.00  0.00     0.024 A 
ATOM     18  C   UNL     1      -2.024   0.675   0.686  1.00  0.00     0.024 A 
ATOM     19  C   UNL     1      -3.967  -0.467  -0.971  1.00  0.00     0.022 A 
ATOM     20  C   UNL     1      -3.143   1.421   0.304  1.00  0.00     0.022 A 
ATOM     21  C   UNL     1      -4.116   0.851  -0.524  1.00  0.00     0.041 A 
ATOM     22  Cl  UNL     1      -5.519   1.788  -1.004  1.00  0.00    -0.084 Cl
ENDBRANCH  13  16
ENDBRANCH   9  13
TORSDOF 3
