REMARK SMILES O=C1C(=O)N(CCCc2ccccc2)c2ccccc21
REMARK SMILES IDX 7 1 6 2 5 3 1 4 2 5 3 6 20 7 4 8 19 9 15 10 18 11 16 12
REMARK SMILES IDX 17 13 8 14 9 15 10 16 14 17 11 18 13 19 12 20
REMARK H PARENT
ROOT
ATOM      1  C   UNL     1       0.523   1.395   0.359  1.00  0.00     0.027 C 
ENDROOT
BRANCH   1   2
ATOM      2  C   UNL     1      -0.607   1.713   1.346  1.00  0.00     0.126 C 
BRANCH   2   3
ATOM      3  N   UNL     1      -1.543   0.594   1.465  1.00  0.00    -0.305 N 
ATOM      4  O   UNL     1      -2.692  -2.546   2.745  1.00  0.00    -0.283 OA
ATOM      5  C   UNL     1      -2.452  -1.492   2.100  1.00  0.00     0.252 C 
ATOM      6  C   UNL     1      -1.527  -0.430   2.463  1.00  0.00     0.299 C 
ATOM      7  C   UNL     1      -3.030  -1.089   0.828  1.00  0.00     0.052 A 
ATOM      8  O   UNL     1      -0.798  -0.410   3.491  1.00  0.00    -0.265 OA
ATOM      9  C   UNL     1      -3.959  -1.732   0.013  1.00  0.00     0.014 A 
ATOM     10  C   UNL     1      -2.475   0.132   0.480  1.00  0.00     0.055 A 
ATOM     11  C   UNL     1      -4.330  -1.105  -1.188  1.00  0.00     0.001 A 
ATOM     12  C   UNL     1      -2.834   0.769  -0.710  1.00  0.00     0.027 A 
ATOM     13  C   UNL     1      -3.771   0.139  -1.548  1.00  0.00     0.002 A 
ENDBRANCH   2   3
ENDBRANCH   1   2
BRANCH   1  14
ATOM     14  C   UNL     1       1.417   0.248   0.847  1.00  0.00     0.037 C 
BRANCH  14  15
ATOM     15  C   UNL     1       2.553   0.020  -0.114  1.00  0.00    -0.048 A 
ATOM     16  C   UNL     1       3.770   0.702   0.052  1.00  0.00     0.004 A 
ATOM     17  C   UNL     1       2.386  -0.833  -1.218  1.00  0.00     0.004 A 
ATOM     18  C   UNL     1       4.812   0.514  -0.861  1.00  0.00     0.000 A 
ATOM     19  C   UNL     1       3.431  -1.019  -2.128  1.00  0.00     0.000 A 
ATOM     20  C   UNL     1       4.644  -0.348  -1.949  1.00  0.00     0.000 A 
ENDBRANCH  14  15
ENDBRANCH   1  14
TORSDOF 4
