REMARK SMILES O=C1C(=O)N(CN2CCN(CN3C(=O)C(=O)c4ccccc43)C2)c2ccccc21
REMARK SMILES IDX 7 1 8 2 9 3 10 4 23 5 6 6 5 7 1 8 2 9 3 10 29 11 4 12 28 13
REMARK SMILES IDX 24 14 27 15 25 16 26 17 11 18 12 19 13 20 22 21 14 22 15 23
REMARK SMILES IDX 21 24 17 25 16 26 20 27 18 28 19 29
REMARK H PARENT
ROOT
ATOM      1  N   UNL     1      -1.165  -0.096   1.062  1.00  0.00    -0.271 NA
ATOM      2  C   UNL     1      -0.063   0.264   1.950  1.00  0.00     0.103 C 
ATOM      3  C   UNL     1       1.175   0.156   1.100  1.00  0.00     0.103 C 
ATOM      4  N   UNL     1       0.892  -0.917   0.148  1.00  0.00    -0.271 NA
ATOM      5  C   UNL     1      -0.575  -0.956   0.022  1.00  0.00     0.175 C 
ENDROOT
BRANCH   1   6
ATOM      6  C   UNL     1      -2.266  -0.749   1.795  1.00  0.00     0.214 C 
BRANCH   6   7
ATOM      7  N   UNL     1      -3.428  -0.901   0.921  1.00  0.00    -0.291 N 
ATOM      8  O   UNL     1      -5.455  -2.582  -1.505  1.00  0.00    -0.283 OA
ATOM      9  C   UNL     1      -4.861  -1.777  -0.741  1.00  0.00     0.252 C 
ATOM     10  C   UNL     1      -3.853  -2.096   0.260  1.00  0.00     0.300 C 
ATOM     11  C   UNL     1      -5.025  -0.334  -0.684  1.00  0.00     0.052 A 
ATOM     12  O   UNL     1      -3.403  -3.245   0.509  1.00  0.00    -0.265 OA
ATOM     13  C   UNL     1      -5.834   0.515  -1.438  1.00  0.00     0.014 A 
ATOM     14  C   UNL     1      -4.168   0.150   0.290  1.00  0.00     0.057 A 
ATOM     15  C   UNL     1      -5.762   1.895  -1.182  1.00  0.00     0.001 A 
ATOM     16  C   UNL     1      -4.080   1.519   0.552  1.00  0.00     0.027 A 
ATOM     17  C   UNL     1      -4.889   2.394  -0.193  1.00  0.00     0.002 A 
ENDBRANCH   6   7
ENDBRANCH   1   6
BRANCH   4  18
ATOM     18  C   UNL     1       1.558  -0.715  -1.152  1.00  0.00     0.214 C 
BRANCH  18  19
ATOM     19  N   UNL     1       3.005  -0.874  -1.007  1.00  0.00    -0.291 N 
ATOM     20  C   UNL     1       3.672  -2.092  -0.666  1.00  0.00     0.300 C 
ATOM     21  C   UNL     1       3.979   0.153  -0.765  1.00  0.00     0.057 A 
ATOM     22  O   UNL     1       3.131  -3.229  -0.696  1.00  0.00    -0.265 OA
ATOM     23  C   UNL     1       5.039  -1.816  -0.252  1.00  0.00     0.252 C 
ATOM     24  C   UNL     1       3.819   1.532  -0.928  1.00  0.00     0.027 A 
ATOM     25  C   UNL     1       5.185  -0.372  -0.330  1.00  0.00     0.052 A 
ATOM     26  O   UNL     1       5.907  -2.651   0.112  1.00  0.00    -0.283 OA
ATOM     27  C   UNL     1       4.908   2.371  -0.633  1.00  0.00     0.002 A 
ATOM     28  C   UNL     1       6.277   0.440  -0.030  1.00  0.00     0.014 A 
ATOM     29  C   UNL     1       6.130   1.828  -0.186  1.00  0.00     0.001 A 
ENDBRANCH  18  19
ENDBRANCH   4  18
TORSDOF 4
