REMARK SMILES Cc1nc2ccccc2n1S(=O)(=O)c1ccc(Cl)cc1Br
REMARK SMILES IDX 11 1 12 2 13 3 10 4 2 5 3 6 4 7 9 8 5 9 8 10 6 11 7 12 1 13
REMARK SMILES IDX 14 14 15 15 20 16 16 17 19 18 17 19 21 20 18 21
REMARK H PARENT
ROOT
ATOM      1  S   UNL     1       0.419  -0.956  -1.448  1.00  0.00     0.270 S 
ATOM      2  O   UNL     1       0.741  -2.395  -1.735  1.00  0.00    -0.201 OA
ATOM      3  O   UNL     1       0.078  -0.274  -2.743  1.00  0.00    -0.201 OA
ENDROOT
BRANCH   1   4
ATOM      4  N   UNL     1      -0.956  -0.857  -0.383  1.00  0.00    -0.219 N 
ATOM      5  C   UNL     1      -1.435  -1.800   0.472  1.00  0.00     0.121 A 
ATOM      6  N   UNL     1      -2.513  -1.381   1.186  1.00  0.00    -0.232 NA
ATOM      7  C   UNL     1      -2.690  -0.119   0.755  1.00  0.00     0.090 A 
ATOM      8  C   UNL     1      -1.753   0.205  -0.183  1.00  0.00     0.084 A 
ATOM      9  C   UNL     1      -3.651   0.795   1.183  1.00  0.00     0.030 A 
ATOM     10  C   UNL     1      -1.691   1.479  -0.754  1.00  0.00     0.030 A 
ATOM     11  C   UNL     1      -3.627   2.083   0.617  1.00  0.00     0.002 A 
ATOM     12  C   UNL     1      -2.649   2.424  -0.344  1.00  0.00     0.002 A 
ATOM     13  C   UNL     1      -0.849  -3.165   0.643  1.00  0.00     0.089 C 
ENDBRANCH   1   4
BRANCH   1  14
ATOM     14  C   UNL     1       1.828  -0.179  -0.714  1.00  0.00     0.102 A 
ATOM     15  C   UNL     1       1.746   0.302   0.603  1.00  0.00     0.025 A 
ATOM     16  C   UNL     1       3.041  -0.040  -1.424  1.00  0.00     0.040 A 
ATOM     17  C   UNL     1       2.846   0.921   1.202  1.00  0.00     0.022 A 
ATOM     18  C   UNL     1       4.138   0.582  -0.814  1.00  0.00     0.037 A 
ATOM     19  C   UNL     1       4.041   1.063   0.494  1.00  0.00     0.042 A 
ATOM     20  Br  UNL     1       3.264  -0.688  -3.217  1.00  0.00    -0.049 Br
ATOM     21  Cl  UNL     1       5.421   1.840   1.248  1.00  0.00    -0.084 Cl
ENDBRANCH   1  14
TORSDOF 2
