REMARK SMILES Cc1cc2ncn(S(=O)(=O)c3ccc(F)cc3)c2cc1C
REMARK SMILES IDX 8 1 9 2 10 3 7 4 2 5 3 6 20 7 4 8 19 9 5 10 18 11 6 12 1 13
REMARK SMILES IDX 21 14 11 15 12 16 17 17 13 18 16 19 14 20 15 21
REMARK H PARENT
ROOT
ATOM      1  S   UNL     1       1.251  -2.274   1.015  1.00  0.00     0.269 S 
ATOM      2  O   UNL     1       0.473  -3.359   0.326  1.00  0.00    -0.201 OA
ATOM      3  O   UNL     1       2.122  -2.888   2.075  1.00  0.00    -0.201 OA
ENDROOT
BRANCH   1   4
ATOM      4  N   UNL     1       0.137  -1.162   1.741  1.00  0.00    -0.222 N 
ATOM      5  C   UNL     1      -2.700   1.466   0.376  1.00  0.00    -0.046 A 
ATOM      6  C   UNL     1      -2.382   1.291   1.743  1.00  0.00     0.034 A 
ATOM      7  C   UNL     1      -2.011   0.702  -0.619  1.00  0.00    -0.046 A 
ATOM      8  C   UNL     1      -1.401   0.364   2.077  1.00  0.00     0.090 A 
ATOM      9  C   UNL     1      -1.024  -0.232  -0.228  1.00  0.00     0.033 A 
ATOM     10  N   UNL     1      -0.948   0.056   3.308  1.00  0.00    -0.236 NA
ATOM     11  C   UNL     1      -0.752  -0.366   1.131  1.00  0.00     0.084 A 
ATOM     12  C   UNL     1      -0.002  -0.887   3.059  1.00  0.00     0.216 A 
ATOM     13  C   UNL     1      -3.756   2.468  -0.008  1.00  0.00     0.044 C 
ATOM     14  C   UNL     1      -2.324   0.868  -2.082  1.00  0.00     0.044 C 
ENDBRANCH   1   4
BRANCH   1  15
ATOM     15  C   UNL     1       2.269  -1.418  -0.138  1.00  0.00     0.088 A 
ATOM     16  C   UNL     1       2.705  -0.116   0.146  1.00  0.00     0.025 A 
ATOM     17  C   UNL     1       2.646  -2.028  -1.343  1.00  0.00     0.025 A 
ATOM     18  C   UNL     1       3.504   0.573  -0.772  1.00  0.00     0.040 A 
ATOM     19  C   UNL     1       3.445  -1.337  -2.259  1.00  0.00     0.040 A 
ATOM     20  C   UNL     1       3.873  -0.036  -1.975  1.00  0.00     0.123 A 
ATOM     21  F   UNL     1       4.647   0.633  -2.864  1.00  0.00    -0.207 F 
ENDBRANCH   1  15
TORSDOF 2
