REMARK SMILES CN1CCN(CN2C(=O)C(=O)c3ccccc32)CC1
REMARK SMILES IDX 1 1 2 2 3 3 4 4 5 5 18 6 19 7 6 8 7 9 8 10 17 11 9 12 10 13
REMARK SMILES IDX 16 14 12 15 11 16 15 17 13 18 14 19
REMARK H PARENT
ROOT
ATOM      1  C   UNL     1      -4.394   1.235  -0.144  1.00  0.00     0.105 C 
ATOM      2  N   UNL     1      -3.606   0.054   0.241  1.00  0.00    -0.304 NA
ATOM      3  C   UNL     1      -2.837   0.326   1.478  1.00  0.00     0.100 C 
ATOM      4  C   UNL     1      -1.628  -0.607   1.594  1.00  0.00     0.102 C 
ATOM      5  N   UNL     1      -0.666  -0.376   0.492  1.00  0.00    -0.283 NA
ATOM      6  C   UNL     1      -1.310   0.044  -0.780  1.00  0.00     0.102 C 
ATOM      7  C   UNL     1      -2.770  -0.431  -0.885  1.00  0.00     0.100 C 
ENDROOT
BRANCH   5   8
ATOM      8  C   UNL     1       0.209  -1.550   0.312  1.00  0.00     0.213 C 
BRANCH   8   9
ATOM      9  N   UNL     1       1.418  -1.169  -0.415  1.00  0.00    -0.291 N 
ATOM     10  C   UNL     1       1.814  -1.588  -1.722  1.00  0.00     0.300 C 
ATOM     11  C   UNL     1       2.413  -0.222  -0.010  1.00  0.00     0.057 A 
ATOM     12  O   UNL     1       1.182  -2.418  -2.427  1.00  0.00    -0.265 OA
ATOM     13  C   UNL     1       3.041  -0.905  -2.108  1.00  0.00     0.252 C 
ATOM     14  C   UNL     1       2.469   0.483   1.194  1.00  0.00     0.027 A 
ATOM     15  C   UNL     1       3.381  -0.046  -0.984  1.00  0.00     0.052 A 
ATOM     16  O   UNL     1       3.673  -1.030  -3.190  1.00  0.00    -0.283 OA
ATOM     17  C   UNL     1       3.535   1.377   1.394  1.00  0.00     0.002 A 
ATOM     18  C   UNL     1       4.447   0.835  -0.809  1.00  0.00     0.014 A 
ATOM     19  C   UNL     1       4.519   1.552   0.397  1.00  0.00     0.001 A 
ENDBRANCH   8   9
ENDBRANCH   5   8
TORSDOF 2
