REMARK SMILES O=C1C(=O)N(Cc2ccccc2)c2ccccc21
REMARK SMILES IDX 6 1 5 2 1 3 2 4 3 5 18 6 4 7 17 8 13 9 16 10 14 11 15 12
REMARK SMILES IDX 7 13 8 14 12 15 9 16 11 17 10 18
REMARK H PARENT
ROOT
ATOM      1  C   UNL     1       0.458  -0.427  -1.833  1.00  0.00     0.161 C 
ENDROOT
BRANCH   1   2
ATOM      2  N   UNL     1      -0.575   0.466  -1.309  1.00  0.00    -0.300 N 
ATOM      3  O   UNL     1      -1.722   3.655  -0.143  1.00  0.00    -0.283 OA
ATOM      4  C   UNL     1      -1.493   2.440  -0.382  1.00  0.00     0.252 C 
ATOM      5  C   UNL     1      -0.530   1.896  -1.327  1.00  0.00     0.299 C 
ATOM      6  C   UNL     1      -2.124   1.288   0.237  1.00  0.00     0.052 A 
ATOM      7  O   UNL     1       0.247   2.573  -2.051  1.00  0.00    -0.265 OA
ATOM      8  C   UNL     1      -3.107   1.219   1.223  1.00  0.00     0.014 A 
ATOM      9  C   UNL     1      -1.563   0.149  -0.318  1.00  0.00     0.056 A 
ATOM     10  C   UNL     1      -3.530  -0.052   1.646  1.00  0.00     0.001 A 
ATOM     11  C   UNL     1      -1.979  -1.122   0.088  1.00  0.00     0.027 A 
ATOM     12  C   UNL     1      -2.970  -1.216   1.081  1.00  0.00     0.002 A 
ENDBRANCH   1   2
BRANCH   1  13
ATOM     13  C   UNL     1       1.589  -0.551  -0.848  1.00  0.00    -0.028 A 
ATOM     14  C   UNL     1       2.615   0.408  -0.825  1.00  0.00     0.005 A 
ATOM     15  C   UNL     1       1.605  -1.596   0.092  1.00  0.00     0.005 A 
ATOM     16  C   UNL     1       3.646   0.316   0.115  1.00  0.00     0.000 A 
ATOM     17  C   UNL     1       2.637  -1.684   1.030  1.00  0.00     0.000 A 
ATOM     18  C   UNL     1       3.657  -0.730   1.042  1.00  0.00     0.000 A 
ENDBRANCH   1  13
TORSDOF 2
