REMARK SMILES O=C1C(=O)N(CN2CCN(Cc3ccc4c(c3)OCO4)CC2)c2ccc(Br)cc21
REMARK SMILES IDX 7 1 8 2 9 3 10 4 21 5 22 6 6 7 5 8 1 9 2 10 3 11 29 12 4 13
REMARK SMILES IDX 28 14 23 15 26 16 24 17 25 18 27 19 11 20 12 21 13 22 17 23
REMARK SMILES IDX 14 24 16 25 15 26 18 27 20 28 19 29
REMARK H PARENT
ROOT
ATOM      1  N   UNL     1      -0.949  -0.412  -1.506  1.00  0.00    -0.283 NA
ATOM      2  C   UNL     1      -0.639   0.133  -0.170  1.00  0.00     0.102 C 
ATOM      3  C   UNL     1       0.671  -0.463   0.385  1.00  0.00     0.100 C 
ATOM      4  N   UNL     1       1.408  -1.180  -0.677  1.00  0.00    -0.297 NA
ATOM      5  C   UNL     1       0.601  -2.311  -1.183  1.00  0.00     0.100 C 
ATOM      6  C   UNL     1      -0.844  -1.881  -1.511  1.00  0.00     0.102 C 
ENDROOT
BRANCH   1   7
ATOM      7  C   UNL     1      -2.239   0.076  -2.040  1.00  0.00     0.213 C 
BRANCH   7   8
ATOM      8  N   UNL     1      -3.384  -0.370  -1.238  1.00  0.00    -0.291 N 
ATOM      9  O   UNL     1      -6.176  -2.459  -0.421  1.00  0.00    -0.283 OA
ATOM     10  C   UNL     1      -5.292  -1.568  -0.524  1.00  0.00     0.252 C 
ATOM     11  C   UNL     1      -4.159  -1.555  -1.437  1.00  0.00     0.300 C 
ATOM     12  C   UNL     1      -5.201  -0.328   0.229  1.00  0.00     0.053 A 
ATOM     13  O   UNL     1      -3.907  -2.435  -2.303  1.00  0.00    -0.265 OA
ATOM     14  C   UNL     1      -6.039   0.190   1.213  1.00  0.00     0.030 A 
ATOM     15  C   UNL     1      -4.084   0.358  -0.218  1.00  0.00     0.057 A 
ATOM     16  C   UNL     1      -5.724   1.447   1.756  1.00  0.00     0.018 A 
ATOM     17  C   UNL     1      -3.762   1.614   0.304  1.00  0.00     0.028 A 
ATOM     18  C   UNL     1      -4.591   2.156   1.302  1.00  0.00     0.018 A 
ATOM     19  Br  UNL     1      -6.838   2.204   3.110  1.00  0.00    -0.051 Br
ENDBRANCH   7   8
ENDBRANCH   1   7
BRANCH   4  20
ATOM     20  C   UNL     1       2.715  -1.662  -0.187  1.00  0.00     0.120 C 
BRANCH  20  21
ATOM     21  C   UNL     1       3.698  -0.525  -0.103  1.00  0.00    -0.030 A 
ATOM     22  C   UNL     1       4.150   0.107  -1.289  1.00  0.00     0.009 A 
ATOM     23  C   UNL     1       4.155  -0.065   1.153  1.00  0.00     0.055 A 
ATOM     24  C   UNL     1       5.054   1.183  -1.226  1.00  0.00     0.051 A 
ATOM     25  C   UNL     1       5.047   1.003   1.171  1.00  0.00     0.166 A 
ATOM     26  C   UNL     1       5.478   1.601   0.032  1.00  0.00     0.165 A 
ATOM     27  O   UNL     1       5.626   1.622   2.263  1.00  0.00    -0.454 OA
ATOM     28  O   UNL     1       6.350   2.624   0.350  1.00  0.00    -0.454 OA
ATOM     29  C   UNL     1       6.474   2.673   1.778  1.00  0.00     0.468 C 
ENDBRANCH  20  21
ENDBRANCH   4  20
TORSDOF 4
