REMARK SMILES O=C1C(=O)N(CCc2ccccc2)c2ccccc21
REMARK SMILES IDX 6 1 5 2 1 3 2 4 3 5 19 6 4 7 18 8 14 9 17 10 15 11 16 12
REMARK SMILES IDX 7 13 8 14 9 15 13 16 10 17 12 18 11 19
REMARK H PARENT
ROOT
ATOM      1  C   UNL     1      -0.251   0.716   0.753  1.00  0.00     0.131 C 
ENDROOT
BRANCH   1   2
ATOM      2  N   UNL     1       1.146   1.070   0.507  1.00  0.00    -0.304 N 
ATOM      3  O   UNL     1       3.723   3.107  -0.921  1.00  0.00    -0.283 OA
ATOM      4  C   UNL     1       2.994   2.201  -0.439  1.00  0.00     0.252 C 
ATOM      5  C   UNL     1       1.619   2.329   0.021  1.00  0.00     0.299 C 
ATOM      6  C   UNL     1       3.341   0.803  -0.246  1.00  0.00     0.052 A 
ATOM      7  O   UNL     1       0.926   3.380  -0.022  1.00  0.00    -0.265 OA
ATOM      8  C   UNL     1       4.513   0.113  -0.549  1.00  0.00     0.014 A 
ATOM      9  C   UNL     1       2.237   0.165   0.294  1.00  0.00     0.055 A 
ATOM     10  C   UNL     1       4.555  -1.266  -0.287  1.00  0.00     0.001 A 
ATOM     11  C   UNL     1       2.259  -1.209   0.553  1.00  0.00     0.027 A 
ATOM     12  C   UNL     1       3.434  -1.924   0.260  1.00  0.00     0.002 A 
ENDBRANCH   1   2
BRANCH   1  13
ATOM     13  C   UNL     1      -0.920   0.263  -0.546  1.00  0.00     0.057 C 
BRANCH  13  14
ATOM     14  C   UNL     1      -2.353  -0.122  -0.297  1.00  0.00    -0.046 A 
ATOM     15  C   UNL     1      -3.372   0.842  -0.380  1.00  0.00     0.004 A 
ATOM     16  C   UNL     1      -2.678  -1.437   0.078  1.00  0.00     0.004 A 
ATOM     17  C   UNL     1      -4.699   0.489  -0.116  1.00  0.00     0.000 A 
ATOM     18  C   UNL     1      -4.006  -1.786   0.342  1.00  0.00     0.000 A 
ATOM     19  C   UNL     1      -5.016  -0.824   0.243  1.00  0.00     0.000 A 
ENDBRANCH  13  14
ENDBRANCH   1  13
TORSDOF 3
