REMARK SMILES O=C1C(=O)N(CN2CCN(Cc3ccccc3)CC2)c2ccccc21
REMARK SMILES IDX 7 1 8 2 9 3 10 4 18 5 19 6 6 7 5 8 1 9 2 10 3 11 25 12 4 13
REMARK SMILES IDX 24 14 20 15 23 16 21 17 22 18 11 19 12 20 13 21 17 22 14 23
REMARK SMILES IDX 16 24 15 25
REMARK H PARENT
ROOT
ATOM      1  N   UNL     1      -0.653  -1.277  -1.633  1.00  0.00    -0.283 NA
ATOM      2  C   UNL     1       0.661  -1.489  -2.270  1.00  0.00     0.102 C 
ATOM      3  C   UNL     1       1.835  -1.134  -1.329  1.00  0.00     0.100 C 
ATOM      4  N   UNL     1       1.432  -1.139   0.096  1.00  0.00    -0.297 NA
ATOM      5  C   UNL     1       0.529  -2.267   0.372  1.00  0.00     0.100 C 
ATOM      6  C   UNL     1      -0.795  -2.089  -0.400  1.00  0.00     0.102 C 
ENDROOT
BRANCH   1   7
ATOM      7  C   UNL     1      -0.936   0.159  -1.416  1.00  0.00     0.213 C 
BRANCH   7   8
ATOM      8  N   UNL     1      -2.371   0.367  -1.227  1.00  0.00    -0.291 N 
ATOM      9  O   UNL     1      -5.821   0.207  -2.165  1.00  0.00    -0.283 OA
ATOM     10  C   UNL     1      -4.702   0.322  -1.600  1.00  0.00     0.252 C 
ATOM     11  C   UNL     1      -3.390   0.150  -2.205  1.00  0.00     0.300 C 
ATOM     12  C   UNL     1      -4.450   0.643  -0.204  1.00  0.00     0.052 A 
ATOM     13  O   UNL     1      -3.168  -0.156  -3.406  1.00  0.00    -0.265 OA
ATOM     14  C   UNL     1      -5.341   0.888   0.839  1.00  0.00     0.014 A 
ATOM     15  C   UNL     1      -3.078   0.657  -0.013  1.00  0.00     0.057 A 
ATOM     16  C   UNL     1      -4.811   1.158   2.111  1.00  0.00     0.001 A 
ATOM     17  C   UNL     1      -2.534   0.921   1.249  1.00  0.00     0.027 A 
ATOM     18  C   UNL     1      -3.415   1.173   2.315  1.00  0.00     0.002 A 
ENDBRANCH   7   8
ENDBRANCH   1   7
BRANCH   4  19
ATOM     19  C   UNL     1       2.607  -1.175   0.989  1.00  0.00     0.120 C 
BRANCH  19  20
ATOM     20  C   UNL     1       3.344   0.138   0.940  1.00  0.00    -0.034 A 
ATOM     21  C   UNL     1       4.608   0.227   0.334  1.00  0.00     0.005 A 
ATOM     22  C   UNL     1       2.748   1.296   1.466  1.00  0.00     0.005 A 
ATOM     23  C   UNL     1       5.271   1.457   0.268  1.00  0.00     0.000 A 
ATOM     24  C   UNL     1       3.415   2.524   1.398  1.00  0.00     0.000 A 
ATOM     25  C   UNL     1       4.676   2.604   0.801  1.00  0.00     0.000 A 
ENDBRANCH  19  20
ENDBRANCH   4  19
TORSDOF 4
