REMARK SMILES O=S(=O)(c1ccc(F)cc1)n1cnc2ccccc21
REMARK SMILES IDX 4 1 5 2 6 3 7 4 8 5 9 6 10 7 2 8 1 9 3 10 11 11 12 12 19 13
REMARK SMILES IDX 13 14 18 15 14 16 17 17 15 18 16 19
REMARK H PARENT
ROOT
ATOM      1  C   UNL     1       1.786   0.574   0.386  1.00  0.00     0.088 A 
ATOM      2  C   UNL     1       1.867  -0.796   0.098  1.00  0.00     0.025 A 
ATOM      3  C   UNL     1       2.716  -1.252  -0.916  1.00  0.00     0.040 A 
ATOM      4  C   UNL     1       3.490  -0.342  -1.643  1.00  0.00     0.123 A 
ATOM      5  F   UNL     1       4.312  -0.785  -2.626  1.00  0.00    -0.207 F 
ATOM      6  C   UNL     1       3.416   1.024  -1.356  1.00  0.00     0.040 A 
ATOM      7  C   UNL     1       2.568   1.483  -0.343  1.00  0.00     0.025 A 
ENDROOT
BRANCH   1   8
ATOM      8  S   UNL     1       0.709   1.142   1.656  1.00  0.00     0.269 S 
ATOM      9  O   UNL     1       1.401   1.004   2.983  1.00  0.00    -0.201 OA
ATOM     10  O   UNL     1       0.350   2.585   1.435  1.00  0.00    -0.201 OA
BRANCH   8  11
ATOM     11  N   UNL     1      -0.745   0.198   1.650  1.00  0.00    -0.222 N 
ATOM     12  C   UNL     1      -1.237  -0.552   2.664  1.00  0.00     0.216 A 
ATOM     13  C   UNL     1      -1.611   0.024   0.643  1.00  0.00     0.084 A 
ATOM     14  N   UNL     1      -2.389  -1.196   2.338  1.00  0.00    -0.236 NA
ATOM     15  C   UNL     1      -1.586   0.556  -0.646  1.00  0.00     0.030 A 
ATOM     16  C   UNL     1      -2.600  -0.817   1.063  1.00  0.00     0.090 A 
ATOM     17  C   UNL     1      -2.632   0.196  -1.517  1.00  0.00     0.002 A 
ATOM     18  C   UNL     1      -3.648  -1.192   0.226  1.00  0.00     0.030 A 
ATOM     19  C   UNL     1      -3.658  -0.674  -1.083  1.00  0.00     0.002 A 
ENDBRANCH   8  11
ENDBRANCH   1   8
TORSDOF 2
