REMARK SMILES COc1ccc(S(=O)(=O)n2cnc3cc([N+](=O)[O-])ccc32)cc1
REMARK SMILES IDX 7 1 8 2 9 3 6 4 3 5 4 6 23 7 5 8 22 9 2 10 1 11 10 12 11 13
REMARK SMILES IDX 21 14 12 15 20 16 13 17 19 18 14 19 15 20 16 21 17 22 18 23
REMARK H PARENT
ROOT
ATOM      1  S   UNL     1       0.036  -2.038   1.459  1.00  0.00     0.269 S 
ATOM      2  O   UNL     1      -0.687  -3.174   0.791  1.00  0.00    -0.201 OA
ATOM      3  O   UNL     1       0.718  -2.549   2.697  1.00  0.00    -0.201 OA
ENDROOT
BRANCH   1   4
ATOM      4  C   UNL     1       1.245  -1.357   0.377  1.00  0.00     0.088 A 
ATOM      5  C   UNL     1       3.166  -0.255  -1.358  1.00  0.00     0.118 A 
ATOM      6  C   UNL     1       2.640   0.510  -0.298  1.00  0.00     0.048 A 
ATOM      7  C   UNL     1       2.724  -1.572  -1.533  1.00  0.00     0.048 A 
ATOM      8  C   UNL     1       1.687  -0.042   0.563  1.00  0.00     0.026 A 
ATOM      9  C   UNL     1       1.770  -2.122  -0.672  1.00  0.00     0.026 A 
BRANCH   5  10
ATOM     10  O   UNL     1       4.123   0.252  -2.250  1.00  0.00    -0.497 OA
ATOM     11  C   UNL     1       4.658   1.570  -2.190  1.00  0.00     0.278 C 
ENDBRANCH   5  10
ENDBRANCH   1   4
BRANCH   1  12
ATOM     12  N   UNL     1      -1.117  -0.816   1.885  1.00  0.00    -0.222 N 
ATOM     13  C   UNL     1      -1.414  -0.369   3.128  1.00  0.00     0.216 A 
ATOM     14  C   UNL     1      -1.885  -0.085   1.066  1.00  0.00     0.085 A 
ATOM     15  N   UNL     1      -2.346   0.620   3.128  1.00  0.00    -0.235 NA
ATOM     16  C   UNL     1      -1.975  -0.121  -0.323  1.00  0.00     0.037 A 
ATOM     17  C   UNL     1      -2.624   0.777   1.819  1.00  0.00     0.096 A 
ATOM     18  C   UNL     1      -2.868   0.774  -0.941  1.00  0.00     0.088 A 
ATOM     19  C   UNL     1      -3.517   1.676   1.243  1.00  0.00     0.116 A 
ATOM     20  C   UNL     1      -3.646   1.680  -0.167  1.00  0.00     0.271 A 
BRANCH  20  21
ATOM     21  N   UNL     1      -4.556   2.592  -0.807  1.00  0.00     0.062 N 
ATOM     22  O   UNL     1      -4.678   2.604  -2.049  1.00  0.00    -0.258 OA
ATOM     23  O   UNL     1      -5.309   3.468  -0.058  1.00  0.00    -0.258 OA
ENDBRANCH  20  21
ENDBRANCH   1  12
TORSDOF 4
