REMARK SMILES CC(C)Cc1ccc(S(=O)(=O)n2cnc3ccccc32)cc1
REMARK SMILES IDX 5 1 6 2 7 3 8 4 21 5 22 6 4 7 2 8 1 9 3 10 9 11 10 12 11 13
REMARK SMILES IDX 12 14 13 15 20 16 14 17 19 18 15 19 18 20 16 21 17 22
REMARK H PARENT
ROOT
ATOM      1  C   UNL     1      -1.741  -0.308  -0.571  1.00  0.00    -0.048 A 
ATOM      2  C   UNL     1      -1.078  -0.360   0.666  1.00  0.00     0.005 A 
ATOM      3  C   UNL     1       0.015   0.474   0.914  1.00  0.00     0.022 A 
ATOM      4  C   UNL     1       0.459   1.367  -0.069  1.00  0.00     0.088 A 
ATOM      5  C   UNL     1      -0.206   1.429  -1.300  1.00  0.00     0.022 A 
ATOM      6  C   UNL     1      -1.301   0.597  -1.550  1.00  0.00     0.005 A 
ENDROOT
BRANCH   1   7
ATOM      7  C   UNL     1      -2.937  -1.189  -0.836  1.00  0.00     0.038 C 
BRANCH   7   8
ATOM      8  C   UNL     1      -4.267  -0.419  -0.692  1.00  0.00    -0.013 C 
ATOM      9  C   UNL     1      -5.436  -1.291  -1.169  1.00  0.00     0.008 C 
ATOM     10  C   UNL     1      -4.507   0.034   0.756  1.00  0.00     0.008 C 
ENDBRANCH   7   8
ENDBRANCH   1   7
BRANCH   4  11
ATOM     11  S   UNL     1       1.844   2.405   0.250  1.00  0.00     0.269 S 
ATOM     12  O   UNL     1       1.383   3.619   1.006  1.00  0.00    -0.201 OA
ATOM     13  O   UNL     1       2.483   2.841  -1.040  1.00  0.00    -0.201 OA
BRANCH  11  14
ATOM     14  N   UNL     1       3.016   1.538   1.188  1.00  0.00    -0.222 N 
ATOM     15  C   UNL     1       3.496   1.873   2.409  1.00  0.00     0.216 A 
ATOM     16  C   UNL     1       3.623   0.383   0.886  1.00  0.00     0.084 A 
ATOM     17  N   UNL     1       4.389   0.971   2.895  1.00  0.00    -0.236 NA
ATOM     18  C   UNL     1       3.491  -0.415  -0.251  1.00  0.00     0.030 A 
ATOM     19  C   UNL     1       4.449   0.045   1.918  1.00  0.00     0.090 A 
ATOM     20  C   UNL     1       4.250  -1.598  -0.306  1.00  0.00     0.002 A 
ATOM     21  C   UNL     1       5.214  -1.119   1.895  1.00  0.00     0.030 A 
ATOM     22  C   UNL     1       5.108  -1.949   0.762  1.00  0.00     0.002 A 
ENDBRANCH  11  14
ENDBRANCH   4  11
TORSDOF 4
