REMARK SMILES Cc1nc2ccccc2n1S(=O)(=O)c1ccc(F)cc1
REMARK SMILES IDX 11 1 12 2 13 3 10 4 2 5 3 6 4 7 9 8 5 9 8 10 6 11 7 12 1 13
REMARK SMILES IDX 14 14 15 15 20 16 16 17 19 18 17 19 18 20
REMARK H PARENT
ROOT
ATOM      1  S   UNL     1      -0.542   0.684  -1.635  1.00  0.00     0.269 S 
ATOM      2  O   UNL     1       0.012  -0.042  -2.830  1.00  0.00    -0.201 OA
ATOM      3  O   UNL     1      -1.204   1.948  -2.104  1.00  0.00    -0.201 OA
ENDROOT
BRANCH   1   4
ATOM      4  N   UNL     1       0.765   1.032  -0.540  1.00  0.00    -0.219 N 
ATOM      5  C   UNL     1       1.128   2.220   0.016  1.00  0.00     0.121 A 
ATOM      6  N   UNL     1       2.181   2.114   0.869  1.00  0.00    -0.232 NA
ATOM      7  C   UNL     1       2.469   0.800   0.835  1.00  0.00     0.090 A 
ATOM      8  C   UNL     1       1.618   0.144  -0.007  1.00  0.00     0.084 A 
ATOM      9  C   UNL     1       3.464   0.130   1.543  1.00  0.00     0.030 A 
ATOM     10  C   UNL     1       1.689  -1.237  -0.200  1.00  0.00     0.030 A 
ATOM     11  C   UNL     1       3.569  -1.262   1.368  1.00  0.00     0.002 A 
ATOM     12  C   UNL     1       2.684  -1.943   0.501  1.00  0.00     0.002 A 
ATOM     13  C   UNL     1       0.446   3.524  -0.248  1.00  0.00     0.089 C 
ENDBRANCH   1   4
BRANCH   1  14
ATOM     14  C   UNL     1      -1.733  -0.314  -0.810  1.00  0.00     0.088 A 
ATOM     15  C   UNL     1      -2.367  -1.370  -1.482  1.00  0.00     0.025 A 
ATOM     16  C   UNL     1      -2.053  -0.053   0.529  1.00  0.00     0.025 A 
ATOM     17  C   UNL     1      -3.307  -2.161  -0.815  1.00  0.00     0.040 A 
ATOM     18  C   UNL     1      -2.994  -0.846   1.194  1.00  0.00     0.040 A 
ATOM     19  C   UNL     1      -3.620  -1.901   0.523  1.00  0.00     0.123 A 
ATOM     20  F   UNL     1      -4.532  -2.669   1.168  1.00  0.00    -0.207 F 
ENDBRANCH   1  14
TORSDOF 2
