REMARK SMILES Cc1ccc(S(=O)(=O)n2cnc3ccccc32)cc1
REMARK SMILES IDX 1 1 2 2 3 3 4 4 5 5 18 6 19 7 6 8 7 9 8 10 9 11 10 12 17 13
REMARK SMILES IDX 11 14 16 15 12 16 15 17 13 18 14 19
REMARK H PARENT
ROOT
ATOM      1  C   UNL     1      -4.426  -1.513  -0.697  1.00  0.00     0.044 C 
ATOM      2  C   UNL     1      -3.239  -0.848  -0.066  1.00  0.00    -0.051 A 
ATOM      3  C   UNL     1      -2.904  -1.119   1.270  1.00  0.00     0.005 A 
ATOM      4  C   UNL     1      -1.819  -0.472   1.870  1.00  0.00     0.022 A 
ATOM      5  C   UNL     1      -1.065   0.460   1.144  1.00  0.00     0.088 A 
ATOM      6  C   UNL     1      -1.413   0.749  -0.182  1.00  0.00     0.022 A 
ATOM      7  C   UNL     1      -2.496   0.103  -0.783  1.00  0.00     0.005 A 
ENDROOT
BRANCH   5   8
ATOM      8  S   UNL     1       0.307   1.271   1.889  1.00  0.00     0.269 S 
ATOM      9  O   UNL     1       0.839   0.458   3.035  1.00  0.00    -0.201 OA
ATOM     10  O   UNL     1      -0.135   2.613   2.400  1.00  0.00    -0.201 OA
BRANCH   8  11
ATOM     11  N   UNL     1       1.568   1.475   0.716  1.00  0.00    -0.222 N 
ATOM     12  C   UNL     1       2.121   2.640   0.305  1.00  0.00     0.216 A 
ATOM     13  C   UNL     1       2.188   0.529  -0.001  1.00  0.00     0.084 A 
ATOM     14  N   UNL     1       3.074   2.469  -0.649  1.00  0.00    -0.236 NA
ATOM     15  C   UNL     1       2.001  -0.853   0.010  1.00  0.00     0.030 A 
ATOM     16  C   UNL     1       3.095   1.133  -0.822  1.00  0.00     0.090 A 
ATOM     17  C   UNL     1       2.792  -1.622  -0.865  1.00  0.00     0.002 A 
ATOM     18  C   UNL     1       3.892   0.401  -1.699  1.00  0.00     0.030 A 
ATOM     19  C   UNL     1       3.733  -0.998  -1.715  1.00  0.00     0.002 A 
ENDBRANCH   8  11
ENDBRANCH   5   8
TORSDOF 2
