REMARK SMILES COc1cc(F)ccc1S(=O)(=O)n1c(C)nc2ccccc21
REMARK SMILES IDX 3 1 4 2 5 3 6 4 7 5 8 6 9 7 2 8 1 9 10 10 11 11 12 12 13 13
REMARK SMILES IDX 14 14 22 15 16 16 21 17 17 18 20 19 18 20 19 21 15 22
REMARK H PARENT
ROOT
ATOM      1  C   UNL     1      -1.921   0.335  -0.092  1.00  0.00     0.142 A 
ATOM      2  C   UNL     1      -2.806   1.424   0.040  1.00  0.00     0.087 A 
ATOM      3  C   UNL     1      -3.126   2.212  -1.069  1.00  0.00     0.126 A 
ATOM      4  F   UNL     1      -3.979   3.257  -0.934  1.00  0.00    -0.207 F 
ATOM      5  C   UNL     1      -2.570   1.924  -2.316  1.00  0.00     0.041 A 
ATOM      6  C   UNL     1      -1.690   0.850  -2.459  1.00  0.00     0.029 A 
ATOM      7  C   UNL     1      -1.358   0.054  -1.352  1.00  0.00     0.130 A 
ENDROOT
BRANCH   1   8
ATOM      8  O   UNL     1      -1.581  -0.479   1.000  1.00  0.00    -0.495 OA
ATOM      9  C   UNL     1      -2.046  -0.286   2.331  1.00  0.00     0.278 C 
ENDBRANCH   1   8
BRANCH   7  10
ATOM     10  S   UNL     1      -0.228  -1.288  -1.541  1.00  0.00     0.273 S 
ATOM     11  O   UNL     1       0.454  -1.221  -2.879  1.00  0.00    -0.200 OA
ATOM     12  O   UNL     1      -0.995  -2.577  -1.456  1.00  0.00    -0.200 OA
BRANCH  10  13
ATOM     13  N   UNL     1       0.983  -1.195  -0.295  1.00  0.00    -0.219 N 
ATOM     14  C   UNL     1       1.274  -2.088   0.690  1.00  0.00     0.121 A 
ATOM     15  C   UNL     1       1.813  -0.167  -0.063  1.00  0.00     0.084 A 
ATOM     16  N   UNL     1       2.256  -1.661   1.529  1.00  0.00    -0.232 NA
ATOM     17  C   UNL     1       1.940   1.038  -0.758  1.00  0.00     0.030 A 
ATOM     18  C   UNL     1       2.576  -0.453   1.031  1.00  0.00     0.090 A 
ATOM     19  C   UNL     1       2.893   1.962  -0.291  1.00  0.00     0.002 A 
ATOM     20  C   UNL     1       3.527   0.440   1.519  1.00  0.00     0.030 A 
ATOM     21  C   UNL     1       3.684   1.665   0.842  1.00  0.00     0.002 A 
ATOM     22  C   UNL     1       0.588  -3.403   0.876  1.00  0.00     0.089 C 
ENDBRANCH  10  13
ENDBRANCH   7  10
TORSDOF 3
