REMARK SMILES CC(=O)Nc1ccc(Nc2ccc(S(C)(=O)=O)cc2[N+](=O)[O-])cc1
REMARK SMILES IDX 9 1 8 3 5 4 6 5 24 6 7 7 23 8 4 9 2 10 3 11 1 12 10 14 11 15
REMARK SMILES IDX 19 16 12 17 18 18 13 19 20 20 21 21 22 22 14 23 16 24 17 25
REMARK SMILES IDX 15 26
REMARK H PARENT 9 2 4 13
ROOT
ATOM      1  N   UNL     1       0.458   1.361   1.131  1.00  0.00    -0.350 N 
ATOM      2  H   UNL     1       0.565   2.153   1.805  1.00  0.00     0.167 HD
ENDROOT
BRANCH   1   3
ATOM      3  C   UNL     1      -0.859   0.817   0.922  1.00  0.00     0.039 A 
ATOM      4  C   UNL     1      -3.465  -0.200   0.550  1.00  0.00     0.041 A 
ATOM      5  C   UNL     1      -3.138   0.515   1.715  1.00  0.00     0.028 A 
ATOM      6  C   UNL     1      -2.472  -0.419  -0.416  1.00  0.00     0.028 A 
ATOM      7  C   UNL     1      -1.850   1.027   1.892  1.00  0.00     0.028 A 
ATOM      8  C   UNL     1      -1.184   0.094  -0.240  1.00  0.00     0.028 A 
BRANCH   4   9
ATOM      9  N   UNL     1      -4.775  -0.759   0.353  1.00  0.00    -0.326 N 
ATOM     10  C   UNL     1      -5.990  -0.150   0.818  1.00  0.00     0.221 C 
ATOM     11  O   UNL     1      -5.999   1.045   1.217  1.00  0.00    -0.275 OA
ATOM     12  C   UNL     1      -7.277  -0.905   0.739  1.00  0.00     0.114 C 
ATOM     13  H   UNL     1      -4.859  -1.619  -0.236  1.00  0.00     0.169 HD
ENDBRANCH   4   9
ENDBRANCH   1   3
BRANCH   1  14
ATOM     14  C   UNL     1       1.604   1.002   0.344  1.00  0.00     0.117 A 
ATOM     15  C   UNL     1       2.288   2.013  -0.343  1.00  0.00     0.035 A 
ATOM     16  C   UNL     1       2.048  -0.339   0.242  1.00  0.00     0.293 A 
ATOM     17  C   UNL     1       3.368   1.704  -1.171  1.00  0.00     0.023 A 
ATOM     18  C   UNL     1       3.127  -0.638  -0.610  1.00  0.00     0.108 A 
ATOM     19  C   UNL     1       3.780   0.376  -1.322  1.00  0.00     0.074 A 
BRANCH  16  20
ATOM     20  N   UNL     1       1.445  -1.389   1.019  1.00  0.00     0.065 N 
ATOM     21  O   UNL     1       1.482  -2.570   0.617  1.00  0.00    -0.258 OA
ATOM     22  O   UNL     1       0.959  -1.133   2.280  1.00  0.00    -0.258 OA
ENDBRANCH  16  20
BRANCH  19  23
ATOM     23  S   UNL     1       5.148  -0.013  -2.360  1.00  0.00     0.175 S 
ATOM     24  O   UNL     1       5.252   0.996  -3.468  1.00  0.00    -0.224 OA
ATOM     25  O   UNL     1       4.955  -1.376  -2.965  1.00  0.00    -0.224 OA
ATOM     26  C   UNL     1       6.643   0.004  -1.397  1.00  0.00     0.163 C 
ENDBRANCH  19  23
ENDBRANCH   1  14
TORSDOF 5
