REMARK SMILES O=C1C(=O)N(C/C=C/c2ccccc2)c2ccc(Cl)cc21
REMARK SMILES IDX 6 1 5 2 1 3 2 4 3 5 21 6 4 7 20 8 15 9 18 10 16 11 17 12
REMARK SMILES IDX 19 13 7 14 8 15 9 16 10 17 14 18 11 19 13 20 12 21
REMARK H PARENT
ROOT
ATOM      1  C   UNL     1      -0.611   1.696  -1.599  1.00  0.00     0.153 C 
ENDROOT
BRANCH   1   2
ATOM      2  N   UNL     1      -1.635   1.487  -0.576  1.00  0.00    -0.301 N 
ATOM      3  O   UNL     1      -3.075   1.929   2.673  1.00  0.00    -0.283 OA
ATOM      4  C   UNL     1      -2.702   1.550   1.532  1.00  0.00     0.252 C 
ATOM      5  C   UNL     1      -1.806   2.248   0.622  1.00  0.00     0.299 C 
ATOM      6  C   UNL     1      -3.057   0.312   0.857  1.00  0.00     0.053 A 
ATOM      7  O   UNL     1      -1.244   3.352   0.850  1.00  0.00    -0.265 OA
ATOM      8  C   UNL     1      -3.854  -0.750   1.278  1.00  0.00     0.035 A 
ATOM      9  C   UNL     1      -2.411   0.300  -0.367  1.00  0.00     0.056 A 
ATOM     10  C   UNL     1      -3.995  -1.853   0.419  1.00  0.00     0.041 A 
ATOM     11  C   UNL     1      -2.533  -0.791  -1.231  1.00  0.00     0.029 A 
ATOM     12  C   UNL     1      -3.335  -1.873  -0.830  1.00  0.00     0.023 A 
ATOM     13  Cl  UNL     1      -4.988  -3.215   0.903  1.00  0.00    -0.084 Cl
ENDBRANCH   1   2
BRANCH   1  14
ATOM     14  C   UNL     1       0.574   0.813  -1.341  1.00  0.00    -0.005 C 
ATOM     15  C   UNL     1       1.370   1.012  -0.284  1.00  0.00     0.005 C 
BRANCH  15  16
ATOM     16  C   UNL     1       2.551   0.171   0.030  1.00  0.00    -0.026 A 
ATOM     17  C   UNL     1       2.700  -1.142  -0.463  1.00  0.00     0.008 A 
ATOM     18  C   UNL     1       3.539   0.690   0.884  1.00  0.00     0.008 A 
ATOM     19  C   UNL     1       3.826  -1.900  -0.126  1.00  0.00     0.001 A 
ATOM     20  C   UNL     1       4.663  -0.072   1.216  1.00  0.00     0.001 A 
ATOM     21  C   UNL     1       4.808  -1.365   0.709  1.00  0.00     0.000 A 
ENDBRANCH  15  16
ENDBRANCH   1  14
TORSDOF 3
