REMARK SMILES COc1cc(F)ccc1S(=O)(=O)n1cnc2ccccc21
REMARK SMILES IDX 3 1 4 2 5 3 6 4 7 5 8 6 9 7 2 8 1 9 10 10 11 11 12 12 13 13
REMARK SMILES IDX 14 14 21 15 15 16 20 17 16 18 19 19 17 20 18 21
REMARK H PARENT
ROOT
ATOM      1  C   UNL     1      -1.922   0.008   0.181  1.00  0.00     0.142 A 
ATOM      2  C   UNL     1      -3.063   0.429   0.892  1.00  0.00     0.087 A 
ATOM      3  C   UNL     1      -3.860  -0.501   1.564  1.00  0.00     0.126 A 
ATOM      4  F   UNL     1      -4.956  -0.086   2.246  1.00  0.00    -0.207 F 
ATOM      5  C   UNL     1      -3.529  -1.856   1.536  1.00  0.00     0.041 A 
ATOM      6  C   UNL     1      -2.400  -2.286   0.836  1.00  0.00     0.029 A 
ATOM      7  C   UNL     1      -1.593  -1.362   0.154  1.00  0.00     0.130 A 
ENDROOT
BRANCH   1   8
ATOM      8  O   UNL     1      -1.100   0.918  -0.503  1.00  0.00    -0.495 OA
ATOM      9  C   UNL     1      -1.299   2.327  -0.531  1.00  0.00     0.278 C 
ENDBRANCH   1   8
BRANCH   7  10
ATOM     10  S   UNL     1      -0.160  -1.921  -0.714  1.00  0.00     0.273 S 
ATOM     11  O   UNL     1      -0.055  -3.419  -0.636  1.00  0.00    -0.200 OA
ATOM     12  O   UNL     1      -0.266  -1.537  -2.162  1.00  0.00    -0.200 OA
BRANCH  10  13
ATOM     13  N   UNL     1       1.258  -1.229   0.011  1.00  0.00    -0.222 N 
ATOM     14  C   UNL     1       1.832  -1.644   1.165  1.00  0.00     0.216 A 
ATOM     15  C   UNL     1       2.000  -0.178  -0.380  1.00  0.00     0.084 A 
ATOM     16  N   UNL     1       2.912  -0.903   1.523  1.00  0.00    -0.236 NA
ATOM     17  C   UNL     1       1.861   0.654  -1.494  1.00  0.00     0.030 A 
ATOM     18  C   UNL     1       2.995   0.010   0.537  1.00  0.00     0.090 A 
ATOM     19  C   UNL     1       2.788   1.702  -1.647  1.00  0.00     0.002 A 
ATOM     20  C   UNL     1       3.928   1.036   0.413  1.00  0.00     0.030 A 
ATOM     21  C   UNL     1       3.818   1.892  -0.698  1.00  0.00     0.002 A 
ENDBRANCH  10  13
ENDBRANCH   7  10
TORSDOF 3
