REMARK SMILES CC(=O)Nc1ccc(S(=O)(=O)n2cnc3ccccc32)cc1
REMARK SMILES IDX 5 1 6 2 7 3 8 4 21 5 22 6 4 7 2 8 3 9 1 10 9 12 10 13 11 14
REMARK SMILES IDX 12 15 13 16 20 17 14 18 19 19 15 20 18 21 16 22 17 23
REMARK H PARENT 4 11
ROOT
ATOM      1  C   UNL     1       2.484   0.212   0.052  1.00  0.00     0.041 A 
ATOM      2  C   UNL     1       2.296  -0.310  -1.241  1.00  0.00     0.027 A 
ATOM      3  C   UNL     1       1.180  -1.101  -1.528  1.00  0.00     0.024 A 
ATOM      4  C   UNL     1       0.230  -1.368  -0.534  1.00  0.00     0.088 A 
ATOM      5  C   UNL     1       0.405  -0.837   0.750  1.00  0.00     0.024 A 
ATOM      6  C   UNL     1       1.520  -0.045   1.038  1.00  0.00     0.027 A 
ENDROOT
BRANCH   1   7
ATOM      7  N   UNL     1       3.610   1.049   0.368  1.00  0.00    -0.326 N 
ATOM      8  C   UNL     1       4.915   0.898  -0.211  1.00  0.00     0.221 C 
ATOM      9  O   UNL     1       5.217  -0.143  -0.854  1.00  0.00    -0.275 OA
ATOM     10  C   UNL     1       5.960   1.938   0.032  1.00  0.00     0.114 C 
ATOM     11  H   UNL     1       3.495   1.760   1.126  1.00  0.00     0.169 HD
ENDBRANCH   1   7
BRANCH   4  12
ATOM     12  S   UNL     1      -1.184  -2.352  -0.892  1.00  0.00     0.269 S 
ATOM     13  O   UNL     1      -1.466  -2.353  -2.368  1.00  0.00    -0.201 OA
ATOM     14  O   UNL     1      -0.927  -3.762  -0.439  1.00  0.00    -0.201 OA
BRANCH  12  15
ATOM     15  N   UNL     1      -2.563  -1.710  -0.060  1.00  0.00    -0.222 N 
ATOM     16  C   UNL     1      -3.340  -2.346   0.848  1.00  0.00     0.216 A 
ATOM     17  C   UNL     1      -3.079  -0.477  -0.148  1.00  0.00     0.084 A 
ATOM     18  N   UNL     1      -4.333  -1.561   1.341  1.00  0.00    -0.236 NA
ATOM     19  C   UNL     1      -2.663   0.601  -0.929  1.00  0.00     0.030 A 
ATOM     20  C   UNL     1      -4.145  -0.392   0.698  1.00  0.00     0.090 A 
ATOM     21  C   UNL     1      -3.389   1.802  -0.819  1.00  0.00     0.002 A 
ATOM     22  C   UNL     1      -4.885   0.781   0.830  1.00  0.00     0.030 A 
ATOM     23  C   UNL     1      -4.496   1.891   0.057  1.00  0.00     0.002 A 
ENDBRANCH  12  15
ENDBRANCH   4  12
TORSDOF 3
