REMARK SMILES COc1ccc(S(=O)(=O)n2c(C)nc3ccccc32)cc1C
REMARK SMILES IDX 3 1 4 2 5 3 6 4 20 5 21 6 22 7 2 8 1 9 7 10 8 11 9 12 10 13
REMARK SMILES IDX 11 14 19 15 13 16 18 17 14 18 17 19 15 20 16 21 12 22
REMARK H PARENT
ROOT
ATOM      1  C   UNL     1       3.047   0.704   0.047  1.00  0.00     0.121 A 
ATOM      2  C   UNL     1       2.314   1.708   0.711  1.00  0.00     0.048 A 
ATOM      3  C   UNL     1       1.095   1.408   1.322  1.00  0.00     0.026 A 
ATOM      4  C   UNL     1       0.591   0.103   1.286  1.00  0.00     0.088 A 
ATOM      5  C   UNL     1       1.311  -0.901   0.628  1.00  0.00     0.029 A 
ATOM      6  C   UNL     1       2.535  -0.609   0.004  1.00  0.00    -0.008 A 
ATOM      7  C   UNL     1       3.300  -1.696  -0.697  1.00  0.00     0.048 C 
ENDROOT
BRANCH   1   8
ATOM      8  O   UNL     1       4.275   0.974  -0.579  1.00  0.00    -0.496 OA
ATOM      9  C   UNL     1       4.897   2.255  -0.619  1.00  0.00     0.278 C 
ENDBRANCH   1   8
BRANCH   4  10
ATOM     10  S   UNL     1      -0.959  -0.284   2.024  1.00  0.00     0.269 S 
ATOM     11  O   UNL     1      -0.771  -1.410   3.002  1.00  0.00    -0.201 OA
ATOM     12  O   UNL     1      -1.500   0.902   2.773  1.00  0.00    -0.201 OA
BRANCH  10  13
ATOM     13  N   UNL     1      -2.079  -0.728   0.770  1.00  0.00    -0.219 N 
ATOM     14  C   UNL     1      -2.586  -1.954   0.467  1.00  0.00     0.121 A 
ATOM     15  C   UNL     1      -2.590   0.081  -0.171  1.00  0.00     0.084 A 
ATOM     16  N   UNL     1      -3.403  -1.944  -0.620  1.00  0.00    -0.232 NA
ATOM     17  C   UNL     1      -2.385   1.449  -0.365  1.00  0.00     0.030 A 
ATOM     18  C   UNL     1      -3.387  -0.654  -1.000  1.00  0.00     0.090 A 
ATOM     19  C   UNL     1      -3.041   2.059  -1.451  1.00  0.00     0.002 A 
ATOM     20  C   UNL     1      -4.048  -0.081  -2.085  1.00  0.00     0.030 A 
ATOM     21  C   UNL     1      -3.869   1.298  -2.307  1.00  0.00     0.002 A 
ATOM     22  C   UNL     1      -2.280  -3.209   1.221  1.00  0.00     0.089 C 
ENDBRANCH  10  13
ENDBRANCH   4  10
TORSDOF 3
