REMARK SMILES Cc1cc(Br)c2c(c1)C(=O)C(=O)N2
REMARK SMILES IDX 1 1 2 2 3 3 4 4 5 5 6 6 7 7 8 8 9 9 10 10 11 11 12 12 13 13
REMARK H PARENT 13 14
ROOT
ATOM      1  C   UNL     1      -3.039  -0.446   0.174  1.00  0.00     0.044 C 
ATOM      2  C   UNL     1      -1.591  -0.074   0.058  1.00  0.00    -0.049 A 
ATOM      3  C   UNL     1      -1.208   1.290   0.054  1.00  0.00     0.021 A 
ATOM      4  C   UNL     1       0.149   1.656  -0.017  1.00  0.00     0.042 A 
ATOM      5  Br  UNL     1       0.650   3.500  -0.029  1.00  0.00    -0.049 Br
ATOM      6  C   UNL     1       1.105   0.640  -0.072  1.00  0.00     0.067 A 
ATOM      7  C   UNL     1       0.731  -0.692  -0.052  1.00  0.00     0.053 A 
ATOM      8  C   UNL     1      -0.604  -1.081   0.019  1.00  0.00     0.018 A 
ATOM      9  C   UNL     1       1.943  -1.491  -0.108  1.00  0.00     0.252 C 
ATOM     10  O   UNL     1       2.030  -2.747  -0.108  1.00  0.00    -0.283 OA
ATOM     11  C   UNL     1       3.037  -0.533  -0.161  1.00  0.00     0.296 C 
ATOM     12  O   UNL     1       4.262  -0.816  -0.218  1.00  0.00    -0.265 OA
ATOM     13  N   UNL     1       2.525   0.798  -0.140  1.00  0.00    -0.317 N 
ATOM     14  H   UNL     1       3.072   1.687  -0.164  1.00  0.00     0.170 HD
ENDROOT
TORSDOF 0
