REMARK SMILES O=S(=O)(c1ccc(Cl)cc1)n1c(C2CCCCC2)nc2ccccc21
REMARK SMILES IDX 1 1 2 2 3 3 4 4 5 5 10 6 6 7 9 8 7 9 8 10 11 11 12 12 25 13
REMARK SMILES IDX 19 14 24 15 20 16 23 17 21 18 22 19 13 20 14 21 18 22 15 23
REMARK SMILES IDX 17 24 16 25
REMARK H PARENT
ROOT
ATOM      1  O   UNL     1      -3.059   1.764   1.378  1.00  0.00    -0.201 OA
ATOM      2  S   UNL     1      -1.908   0.802   1.318  1.00  0.00     0.269 S 
ATOM      3  O   UNL     1      -1.488   0.482   2.725  1.00  0.00    -0.201 OA
ENDROOT
BRANCH   2   4
ATOM      4  C   UNL     1      -2.443  -0.650   0.481  1.00  0.00     0.088 A 
ATOM      5  C   UNL     1      -2.756  -0.584  -0.883  1.00  0.00     0.024 A 
ATOM      6  C   UNL     1      -2.528  -1.878   1.154  1.00  0.00     0.024 A 
ATOM      7  C   UNL     1      -3.146  -1.736  -1.572  1.00  0.00     0.022 A 
ATOM      8  C   UNL     1      -2.917  -3.030   0.464  1.00  0.00     0.022 A 
ATOM      9  C   UNL     1      -3.225  -2.961  -0.899  1.00  0.00     0.041 A 
ATOM     10  Cl  UNL     1      -3.707  -4.408  -1.765  1.00  0.00    -0.084 Cl
ENDBRANCH   2   4
BRANCH   2  11
ATOM     11  N   UNL     1      -0.547   1.477   0.460  1.00  0.00    -0.219 N 
ATOM     12  C   UNL     1       0.658   0.879   0.239  1.00  0.00     0.127 A 
ATOM     13  C   UNL     1      -0.444   2.667  -0.164  1.00  0.00     0.084 A 
ATOM     14  N   UNL     1       1.507   1.642  -0.499  1.00  0.00    -0.232 NA
ATOM     15  C   UNL     1      -1.377   3.704  -0.290  1.00  0.00     0.030 A 
ATOM     16  C   UNL     1       0.796   2.756  -0.733  1.00  0.00     0.090 A 
ATOM     17  C   UNL     1      -0.995   4.847  -1.018  1.00  0.00     0.002 A 
ATOM     18  C   UNL     1       1.201   3.872  -1.460  1.00  0.00     0.030 A 
ATOM     19  C   UNL     1       0.288   4.931  -1.600  1.00  0.00     0.002 A 
BRANCH  12  20
ATOM     20  C   UNL     1       1.029  -0.518   0.688  1.00  0.00     0.057 C 
ATOM     21  C   UNL     1       0.995  -1.486  -0.520  1.00  0.00     0.011 C 
ATOM     22  C   UNL     1       2.396  -0.522   1.427  1.00  0.00     0.011 C 
ATOM     23  C   UNL     1       1.846  -2.731  -0.256  1.00  0.00     0.001 C 
ATOM     24  C   UNL     1       3.549  -0.951   0.512  1.00  0.00     0.001 C 
ATOM     25  C   UNL     1       3.332  -2.371  -0.049  1.00  0.00     0.000 C 
ENDBRANCH  12  20
ENDBRANCH   2  11
TORSDOF 3
