REMARK SMILES COc1cc(S(=O)(=O)n2c(C)nc3ccccc32)ccc1F
REMARK SMILES IDX 3 1 4 2 5 3 19 4 20 5 21 6 22 7 2 8 1 9 6 10 7 11 8 12 9 13
REMARK SMILES IDX 10 14 18 15 12 16 17 17 13 18 16 19 14 20 15 21 11 22
REMARK H PARENT
ROOT
ATOM      1  C   UNL     1       2.799  -0.531   0.687  1.00  0.00     0.155 A 
ATOM      2  C   UNL     1       1.672  -0.429  -0.152  1.00  0.00     0.071 A 
ATOM      3  C   UNL     1       0.966  -1.577  -0.535  1.00  0.00     0.092 A 
ATOM      4  C   UNL     1       1.392  -2.835  -0.090  1.00  0.00     0.025 A 
ATOM      5  C   UNL     1       2.511  -2.942   0.738  1.00  0.00     0.044 A 
ATOM      6  C   UNL     1       3.212  -1.796   1.126  1.00  0.00     0.165 A 
ATOM      7  F   UNL     1       4.296  -1.914   1.932  1.00  0.00    -0.203 F 
ENDROOT
BRANCH   1   8
ATOM      8  O   UNL     1       3.528   0.593   1.104  1.00  0.00    -0.494 OA
ATOM      9  C   UNL     1       3.221   1.933   0.734  1.00  0.00     0.278 C 
ENDBRANCH   1   8
BRANCH   3  10
ATOM     10  S   UNL     1      -0.453  -1.427  -1.564  1.00  0.00     0.269 S 
ATOM     11  O   UNL     1      -1.344  -2.628  -1.405  1.00  0.00    -0.201 OA
ATOM     12  O   UNL     1      -0.013  -1.340  -2.998  1.00  0.00    -0.201 OA
BRANCH  10  13
ATOM     13  N   UNL     1      -1.341  -0.006  -1.097  1.00  0.00    -0.219 N 
ATOM     14  C   UNL     1      -1.500   1.166  -1.769  1.00  0.00     0.121 A 
ATOM     15  C   UNL     1      -1.966   0.197   0.073  1.00  0.00     0.084 A 
ATOM     16  N   UNL     1      -2.211   2.092  -1.072  1.00  0.00    -0.232 NA
ATOM     17  C   UNL     1      -2.085  -0.659   1.170  1.00  0.00     0.030 A 
ATOM     18  C   UNL     1      -2.491   1.456   0.080  1.00  0.00     0.090 A 
ATOM     19  C   UNL     1      -2.784  -0.184   2.295  1.00  0.00     0.002 A 
ATOM     20  C   UNL     1      -3.188   1.957   1.178  1.00  0.00     0.030 A 
ATOM     21  C   UNL     1      -3.336   1.118   2.297  1.00  0.00     0.002 A 
ATOM     22  C   UNL     1      -0.940   1.450  -3.125  1.00  0.00     0.089 C 
ENDBRANCH  10  13
ENDBRANCH   3  10
TORSDOF 3
