REMARK SMILES CC(=O)c1nc2ccccc2n1S(=O)(=O)c1ccc(Cl)cc1
REMARK SMILES IDX 4 1 5 2 6 3 7 4 8 5 9 6 10 7 11 8 12 9 2 10 3 11 1 12 13 13
REMARK SMILES IDX 14 14 15 15 16 16 17 17 22 18 18 19 21 20 19 21 20 22
REMARK H PARENT
ROOT
ATOM      1  C   UNL     1      -1.029  -1.427   0.196  1.00  0.00     0.191 A 
ATOM      2  N   UNL     1      -2.304  -1.416  -0.275  1.00  0.00    -0.224 NA
ATOM      3  C   UNL     1      -2.721  -0.166  -0.010  1.00  0.00     0.090 A 
ATOM      4  C   UNL     1      -3.962   0.388  -0.314  1.00  0.00     0.030 A 
ATOM      5  C   UNL     1      -4.177   1.737   0.021  1.00  0.00     0.002 A 
ATOM      6  C   UNL     1      -3.153   2.491   0.635  1.00  0.00     0.002 A 
ATOM      7  C   UNL     1      -1.909   1.902   0.928  1.00  0.00     0.030 A 
ATOM      8  C   UNL     1      -1.733   0.553   0.598  1.00  0.00     0.085 A 
ATOM      9  N   UNL     1      -0.654  -0.238   0.753  1.00  0.00    -0.212 N 
ENDROOT
BRANCH   1  10
ATOM     10  C   UNL     1      -0.161  -2.613   0.041  1.00  0.00     0.196 C 
ATOM     11  O   UNL     1       1.093  -2.502   0.078  1.00  0.00    -0.291 OA
ATOM     12  C   UNL     1      -0.760  -3.949  -0.263  1.00  0.00     0.097 C 
ENDBRANCH   1  10
BRANCH   9  13
ATOM     13  S   UNL     1       0.849   0.146   1.552  1.00  0.00     0.270 S 
ATOM     14  O   UNL     1       1.274  -1.029   2.388  1.00  0.00    -0.201 OA
ATOM     15  O   UNL     1       0.681   1.326   2.467  1.00  0.00    -0.201 OA
BRANCH  13  16
ATOM     16  C   UNL     1       2.075   0.518   0.347  1.00  0.00     0.088 A 
ATOM     17  C   UNL     1       3.400   0.097   0.527  1.00  0.00     0.024 A 
ATOM     18  C   UNL     1       1.728   1.241  -0.803  1.00  0.00     0.024 A 
ATOM     19  C   UNL     1       4.368   0.390  -0.440  1.00  0.00     0.022 A 
ATOM     20  C   UNL     1       2.696   1.533  -1.768  1.00  0.00     0.022 A 
ATOM     21  C   UNL     1       4.016   1.107  -1.588  1.00  0.00     0.041 A 
ATOM     22  Cl  UNL     1       5.230   1.475  -2.800  1.00  0.00    -0.084 Cl
ENDBRANCH  13  16
ENDBRANCH   9  13
TORSDOF 3
